/*---------------------------------------------------------------------------*\
| =========                 |                                                 |
| \\      /  F ield         | OpenFOAM: The Open Source CFD Toolbox           |
|  \\    /   O peration     | Version:  2312                                  |
|   \\  /    A nd           | Website:  www.openfoam.com                      |
|    \\/     M anipulation  |                                                 |
\*---------------------------------------------------------------------------*/
Build  : e3190d33-20240103 OPENFOAM=2312 version=v2312
Arch   : "LSB;label=32;scalar=64"
Exec   : twoPhaseMixingHLLCFoamIN
Date   : Aug 09 2024
Time   : 19:25:14
Host   : dyfluid-virtual-machine
PID    : 52705
I/O    : uncollated
Case   : /home/dyfluid/OpenFOAM/dyfluid-v2312/solvers/solvers/twoPhaseMixingHLLCFoam/cases/6LiqSod/HLLC
nProcs : 1
trapFpe: Floating point exception trapping enabled (FOAM_SIGFPE).
fileModificationChecking : Monitoring run-time modified files using timeStampMaster (fileModificationSkew 5, maxFileModificationPolls 20)
allowSystemOperations : Allowing user-supplied system call operations

// * * * * * * * * * * * * * * * * * * * * * * * * * * * * * * * * * * * * * //
Create time

Create mesh for time = 0


PIMPLE: no residual control data found. Calculations will employ 3 corrector loops

Reading field U

Constructing compressibleTwoPhaseMixtureThermo

Selecting saturationModel: constant
max/min T: 293/293
Reading thermophysical properties

max/min T: 293/293
Creating field gradp

Creating field kinetic energy K

Declare and initialise the cumulative continuity error

No MRF models present

No finite volume options present
Selecting finite volume kappaFunction type sonicCourantInverse
Creating turbulence model

Selecting turbulence model type laminar
Selecting laminar stress model Stokes
Marking cells with bad quality to limit pressure gradient
Courant Number max: 0

Starting time loop

Sampled set:
    line -> csv

Mean and max Characteristic Courant Numbers = 0.0011665 0.002333
Courant Number max: 0
deltaT = 1.2e-09
Time = 1.2e-09

PIMPLE: iteration 1
diagonal:  Solving for rho, Initial residual = 0, Final residual = 0, No Iterations 0
rho max/min : 1037.87 / 1033.44
DILUPBiCGStab:  Solving for Y.Liq, Initial residual = 1, Final residual = 1.00929e-17, No Iterations 1
Mass fraction min/max = 1/1
DILUPBiCGStab:  Solving for h, Initial residual = 1, Final residual = 1.4803e-18, No Iterations 1
max/min T: 293/293
max/min cf_own:1458.13/1458.13
max/min cf_nei:1458.13/1458.13
max/min alpha_own: 0.00203948/0
max/min alpha_nei: -0/-0
DILUPBiCGStab:  Solving for p, Initial residual = 5.84636e-09, Final residual = 7.34248e-26, No Iterations 1
max(mag(U)): 0.00832514
max/min p: 1e+07/999996
diagonal:  Solving for rho, Initial residual = 0, Final residual = 0, No Iterations 0
rho max/min : 1037.87 / 1033.44
time step continuity errors : sum local = 6.86079e-18, global = -5.76306e-18, cumulative = 0
max/min cSf: 0.583251/0.583251
max/min amaxSf: 0.583254/0.583251
max/min FaceSonicCourant: 0.00279961/0.00139981
max/min kappa: 1/0
PIMPLE: iteration 2
diagonal:  Solving for rho, Initial residual = 0, Final residual = 0, No Iterations 0
rho max/min : 1037.87 / 1033.44
DILUPBiCGStab:  Solving for Y.Liq, Initial residual = 1, Final residual = 3.10862e-17, No Iterations 1
Mass fraction min/max = 1/1
DILUPBiCGStab:  Solving for h, Initial residual = 1, Final residual = 1.29529e-17, No Iterations 1
max/min T: 293/293
max/min cf_own:1458.13/1458.13
max/min cf_nei:1458.13/1458.13
max/min alpha_own: 0.0020423/0
max/min alpha_nei: 9.56072e-10/-0
DILUPBiCGStab:  Solving for p, Initial residual = 1.67452e-06, Final residual = 1.50668e-22, No Iterations 1
max(mag(U)): 0.00834922
max/min p: 1e+07/1e+06
diagonal:  Solving for rho, Initial residual = 0, Final residual = 0, No Iterations 0
rho max/min : 1037.87 / 1033.44
time step continuity errors : sum local = 6.31192e-18, global = -5.76306e-18, cumulative = 0
max/min cSf: 0.583251/0.583251
max/min amaxSf: 0.584445/0.583251
max/min FaceSonicCourant: 0.00279961/0.00139981
max/min kappa: 1/0
PIMPLE: iteration 3
diagonal:  Solving for rho, Initial residual = 0, Final residual = 0, No Iterations 0
rho max/min : 1037.87 / 1033.44
DILUPBiCGStab:  Solving for Y.Liq, Initial residual = 0.925926, Final residual = 1.23358e-17, No Iterations 1
Mass fraction min/max = 1/1
DILUPBiCGStab:  Solving for h, Initial residual = 0.99373, Final residual = 4.50747e-20, No Iterations 1
max/min T: 293.001/292.999
max/min cf_own:1458.13/1458.12
max/min cf_nei:1458.13/1458.12
max/min alpha_own: 0.00203823/0
max/min alpha_nei: 6.39184e-13/-0
DILUPBiCGStab:  Solving for p, Initial residual = 1.0567e-08, Final residual = 1.46957e-25, No Iterations 1
max(mag(U)): 0.00417442
max/min p: 1e+07/1e+06
diagonal:  Solving for rho, Initial residual = 0, Final residual = 0, No Iterations 0
rho max/min : 1037.87 / 1033.44
time step continuity errors : sum local = 6.31192e-18, global = -5.76306e-18, cumulative = 0
max/min cSf: 0.583252/0.583251
max/min amaxSf: 0.584444/0.583251
max/min FaceSonicCourant: 0.00279961/0.0013998
max/min kappa: 1/0
ExecutionTime = 0.03 s  ClockTime = 0 s

Mean and max Characteristic Courant Numbers = 0.00139981 0.00279961
Courant Number max: 1.43918e-06
deltaT = 1.44001e-09
Time = 2.64002e-09

PIMPLE: iteration 1
diagonal:  Solving for rho, Initial residual = 0, Final residual = 0, No Iterations 0
rho max/min : 1037.87 / 1033.44
DILUPBiCGStab:  Solving for Y.Liq, Initial residual = 0.98773, Final residual = 6.47063e-17, No Iterations 1
Mass fraction min/max = 1/1
DILUPBiCGStab:  Solving for h, Initial residual = 0.375031, Final residual = 1.69421e-20, No Iterations 1
max/min T: 293.003/292.997
max/min cf_own:1458.13/1458.12
max/min cf_nei:1458.13/1458.12
max/min alpha_own: 0.0020382/0
max/min alpha_nei: 8.97296e-16/-0
DILUPBiCGStab:  Solving for p, Initial residual = 2.0207e-06, Final residual = 2.73328e-28, No Iterations 1
max(mag(U)): 0.00917234
max/min p: 1e+07/1e+06
diagonal:  Solving for rho, Initial residual = 0, Final residual = 0, No Iterations 0
rho max/min : 1037.87 / 1033.44
time step continuity errors : sum local = 4.52812e-17, global = 1.0154e-17, cumulative = 0
max/min cSf: 0.583254/0.583251
max/min amaxSf: 0.584447/0.583251
max/min FaceSonicCourant: 0.00335955/0.00167977
max/min kappa: 1/0
PIMPLE: iteration 2
diagonal:  Solving for rho, Initial residual = 0, Final residual = 0, No Iterations 0
rho max/min : 1037.87 / 1033.44
DILUPBiCGStab:  Solving for Y.Liq, Initial residual = 0.256705, Final residual = 4.25374e-19, No Iterations 1
Mass fraction min/max = 1/1
DILUPBiCGStab:  Solving for h, Initial residual = 0.000374993, Final residual = 1.23331e-20, No Iterations 1
max/min T: 293.003/292.997
max/min cf_own:1458.13/1458.12
max/min cf_nei:1458.13/1458.12
max/min alpha_own: 0.0020367/0
max/min alpha_nei: 4.55155e-15/-0
DILUPBiCGStab:  Solving for p, Initial residual = 6.47105e-09, Final residual = 5.28923e-25, No Iterations 1
max(mag(U)): 0.00916881
max/min p: 1e+07/1e+06
diagonal:  Solving for rho, Initial residual = 0, Final residual = 0, No Iterations 0
rho max/min : 1037.87 / 1033.44
time step continuity errors : sum local = 4.47323e-17, global = 1.0154e-17, cumulative = 0
max/min cSf: 0.583254/0.583251
max/min amaxSf: 0.584446/0.583251
max/min FaceSonicCourant: 0.00335955/0.00167977
max/min kappa: 1/0
PIMPLE: iteration 3
diagonal:  Solving for rho, Initial residual = 0, Final residual = 0, No Iterations 0
rho max/min : 1037.87 / 1033.44
DILUPBiCGStab:  Solving for Y.Liq, Initial residual = 0.260377, Final residual = 8.37904e-19, No Iterations 1
Mass fraction min/max = 1/1
DILUPBiCGStab:  Solving for h, Initial residual = 0.00087452, Final residual = 9.85383e-20, No Iterations 1
max/min T: 293.003/292.997
max/min cf_own:1458.13/1458.12
max/min cf_nei:1458.13/1458.12
max/min alpha_own: 0.00203671/0
max/min alpha_nei: 4.54066e-15/-0
DILUPBiCGStab:  Solving for p, Initial residual = 1.92757e-11, Final residual = 2.15369e-28, No Iterations 1
max(mag(U)): 0.00917882
max/min p: 1e+07/1e+06
diagonal:  Solving for rho, Initial residual = 0, Final residual = 0, No Iterations 0
rho max/min : 1037.87 / 1033.44
time step continuity errors : sum local = 4.3909e-17, global = 8.78181e-18, cumulative = 0
max/min cSf: 0.583254/0.583251
max/min amaxSf: 0.584446/0.583251
max/min FaceSonicCourant: 0.00335955/0.00167977
max/min kappa: 1/0
ExecutionTime = 0.04 s  ClockTime = 0 s

Mean and max Characteristic Courant Numbers = 0.00167978 0.00335955
Courant Number max: 1.72761e-06
deltaT = 1.72803e-09
Time = 4.36804e-09

PIMPLE: iteration 1
diagonal:  Solving for rho, Initial residual = 0, Final residual = 0, No Iterations 0
rho max/min : 1037.87 / 1033.44
DILUPBiCGStab:  Solving for Y.Liq, Initial residual = 0.607921, Final residual = 8.98393e-26, No Iterations 1
Mass fraction min/max = 1/1
DILUPBiCGStab:  Solving for h, Initial residual = 0.246716, Final residual = 4.57483e-17, No Iterations 1
max/min T: 293.005/292.995
max/min cf_own:1458.14/1458.11
max/min cf_nei:1458.14/1458.11
max/min alpha_own: 0.00203669/0
max/min alpha_nei: 4.54042e-15/-0
DILUPBiCGStab:  Solving for p, Initial residual = 2.42468e-06, Final residual = 8.46424e-25, No Iterations 1
max(mag(U)): 0.0151607
max/min p: 1e+07/1e+06
diagonal:  Solving for rho, Initial residual = 0, Final residual = 0, No Iterations 0
rho max/min : 1037.87 / 1033.44
time step continuity errors : sum local = 5.7905e-17, global = 3.10108e-17, cumulative = 0
max/min cSf: 0.583256/0.583251
max/min amaxSf: 0.584449/0.583251
max/min FaceSonicCourant: 0.00403149/0.00201573
max/min kappa: 1/0
PIMPLE: iteration 2
diagonal:  Solving for rho, Initial residual = 0, Final residual = 0, No Iterations 0
rho max/min : 1037.87 / 1033.44
DILUPBiCGStab:  Solving for Y.Liq, Initial residual = 0.0696452, Final residual = 1.4589e-19, No Iterations 1
Mass fraction min/max = 1/1
DILUPBiCGStab:  Solving for h, Initial residual = 0.000129376, Final residual = 1.78925e-20, No Iterations 1
max/min T: 293.005/292.995
max/min cf_own:1458.14/1458.11
max/min cf_nei:1458.14/1458.11
max/min alpha_own: 0.00203489/0
max/min alpha_nei: 1.37528e-14/-0
DILUPBiCGStab:  Solving for p, Initial residual = 9.30066e-09, Final residual = 6.35645e-25, No Iterations 1
max(mag(U)): 0.0151607
max/min p: 1e+07/1e+06
diagonal:  Solving for rho, Initial residual = 0, Final residual = 0, No Iterations 0
rho max/min : 1037.87 / 1033.44
time step continuity errors : sum local = 1.11694e-16, global = 8.04084e-17, cumulative = 0
max/min cSf: 0.583256/0.583251
max/min amaxSf: 0.584447/0.583251
max/min FaceSonicCourant: 0.00403149/0.00201573
max/min kappa: 1/0
PIMPLE: iteration 3
diagonal:  Solving for rho, Initial residual = 0, Final residual = 0, No Iterations 0
rho max/min : 1037.87 / 1033.44
DILUPBiCGStab:  Solving for Y.Liq, Initial residual = 0.0710526, Final residual = 1.46082e-19, No Iterations 1
Mass fraction min/max = 1/1
DILUPBiCGStab:  Solving for h, Initial residual = 0.000759286, Final residual = 7.15015e-20, No Iterations 1
max/min T: 293.005/292.995
max/min cf_own:1458.14/1458.11
max/min cf_nei:1458.14/1458.11
max/min alpha_own: 0.00203491/0
max/min alpha_nei: 1.36136e-14/-0
DILUPBiCGStab:  Solving for p, Initial residual = 3.43973e-11, Final residual = 1.75754e-27, No Iterations 1
max(mag(U)): 0.0151751
max/min p: 1e+07/1e+06
diagonal:  Solving for rho, Initial residual = 0, Final residual = 0, No Iterations 0
rho max/min : 1037.87 / 1033.44
time step continuity errors : sum local = 8.53482e-17, global = 5.62584e-17, cumulative = 0
max/min cSf: 0.583256/0.583251
max/min amaxSf: 0.584447/0.583251
max/min FaceSonicCourant: 0.00403149/0.00201573
max/min kappa: 1/0
ExecutionTime = 0.05 s  ClockTime = 0 s

Mean and max Characteristic Courant Numbers = 0.00201575 0.00403149
Courant Number max: 2.07575e-06
deltaT = 2.07361e-09
Time = 6.44165e-09

PIMPLE: iteration 1
diagonal:  Solving for rho, Initial residual = 0, Final residual = 0, No Iterations 0
rho max/min : 1037.87 / 1033.44
DILUPBiCGStab:  Solving for Y.Liq, Initial residual = 0.0255144, Final residual = 2.10166e-18, No Iterations 1
Mass fraction min/max = 1/1
DILUPBiCGStab:  Solving for h, Initial residual = 0.191828, Final residual = 1.77372e-17, No Iterations 1
max/min T: 293.007/292.993
max/min cf_own:1458.15/1458.11
max/min cf_nei:1458.15/1458.11
max/min alpha_own: 0.00203488/0
max/min alpha_nei: 1.36896e-14/-0
DILUPBiCGStab:  Solving for p, Initial residual = 2.90934e-06, Final residual = 2.60867e-22, No Iterations 1
max(mag(U)): 0.0223369
max/min p: 1e+07/1e+06
diagonal:  Solving for rho, Initial residual = 0, Final residual = 0, No Iterations 0
rho max/min : 1037.87 / 1033.44
time step continuity errors : sum local = 4.3909e-17, global = -4.3909e-18, cumulative = 0
max/min cSf: 0.583258/0.583251
max/min amaxSf: 0.584451/0.583251
max/min FaceSonicCourant: 0.00483774/0.00241884
max/min kappa: 1/0
PIMPLE: iteration 2
diagonal:  Solving for rho, Initial residual = 0, Final residual = 0, No Iterations 0
rho max/min : 1037.87 / 1033.44
DILUPBiCGStab:  Solving for Y.Liq, Initial residual = 0.00498339, Final residual = 3.68845e-19, No Iterations 1
Mass fraction min/max = 1/1
DILUPBiCGStab:  Solving for h, Initial residual = 0.000125595, Final residual = 2.19231e-20, No Iterations 1
max/min T: 293.007/292.993
max/min cf_own:1458.15/1458.11
max/min cf_nei:1458.15/1458.11
max/min alpha_own: 0.00203274/0
max/min alpha_nei: 1.36094e-14/-0
DILUPBiCGStab:  Solving for p, Initial residual = 1.33683e-08, Final residual = 1.52554e-24, No Iterations 1
max(mag(U)): 0.022337
max/min p: 1e+07/1e+06
diagonal:  Solving for rho, Initial residual = 0, Final residual = 0, No Iterations 0
rho max/min : 1037.87 / 1033.44
time step continuity errors : sum local = 2.27778e-17, global = -2.11312e-17, cumulative = 0
max/min cSf: 0.583258/0.583251
max/min amaxSf: 0.58445/0.583251
max/min FaceSonicCourant: 0.00483774/0.00241884
max/min kappa: 1/0
PIMPLE: iteration 3
diagonal:  Solving for rho, Initial residual = 0, Final residual = 0, No Iterations 0
rho max/min : 1037.87 / 1033.44
DILUPBiCGStab:  Solving for Y.Liq, Initial residual = 0.0255144, Final residual = 1.9189e-18, No Iterations 1
Mass fraction min/max = 1/1
DILUPBiCGStab:  Solving for h, Initial residual = 0.000739769, Final residual = 2.03532e-19, No Iterations 1
max/min T: 293.007/292.993
max/min cf_own:1458.15/1458.11
max/min cf_nei:1458.15/1458.11
max/min alpha_own: 0.00203276/0
max/min alpha_nei: 1.37149e-14/-0
DILUPBiCGStab:  Solving for p, Initial residual = 4.9896e-11, Final residual = 2.48684e-27, No Iterations 1
max(mag(U)): 0.0223577
max/min p: 1e+07/1e+06
diagonal:  Solving for rho, Initial residual = 0, Final residual = 0, No Iterations 0
rho max/min : 1037.87 / 1033.44
time step continuity errors : sum local = 2.52477e-17, global = -1.86613e-17, cumulative = 0
max/min cSf: 0.583258/0.583251
max/min amaxSf: 0.58445/0.583251
max/min FaceSonicCourant: 0.00483774/0.00241884
max/min kappa: 1/0
ExecutionTime = 0.06 s  ClockTime = 0 s

Mean and max Characteristic Courant Numbers = 0.00241887 0.00483774
Courant Number max: 2.49463e-06
deltaT = 2.48833e-09
Time = 8.92998e-09

PIMPLE: iteration 1
diagonal:  Solving for rho, Initial residual = 0, Final residual = 0, No Iterations 0
rho max/min : 1037.87 / 1033.44
DILUPBiCGStab:  Solving for Y.Liq, Initial residual = 0.12103, Final residual = 5.90848e-18, No Iterations 1
Mass fraction min/max = 1/1
DILUPBiCGStab:  Solving for h, Initial residual = 0.161793, Final residual = 1.51395e-17, No Iterations 1
max/min T: 293.01/292.99
max/min cf_own:1458.15/1458.1
max/min cf_nei:1458.15/1458.1
max/min alpha_own: 0.00203272/0
max/min alpha_nei: 1.37147e-14/-0
DILUPBiCGStab:  Solving for p, Initial residual = 3.49084e-06, Final residual = 2.44088e-24, No Iterations 1
max(mag(U)): 0.0309283
max/min p: 1e+07/1e+06
diagonal:  Solving for rho, Initial residual = 0, Final residual = 0, No Iterations 0
rho max/min : 1037.87 / 1033.44
time step continuity errors : sum local = 7.87618e-17, global = 6.11982e-17, cumulative = 0
max/min cSf: 0.583261/0.583251
max/min amaxSf: 0.584454/0.583251
max/min FaceSonicCourant: 0.00580528/0.00290259
max/min kappa: 1/0
PIMPLE: iteration 2
diagonal:  Solving for rho, Initial residual = 0, Final residual = 0, No Iterations 0
rho max/min : 1037.87 / 1033.44
DILUPBiCGStab:  Solving for Y.Liq, Initial residual = 0.0229709, Final residual = 1.36015e-18, No Iterations 1
Mass fraction min/max = 1/1
DILUPBiCGStab:  Solving for h, Initial residual = 0.000129504, Final residual = 1.32786e-20, No Iterations 1
max/min T: 293.01/292.99
max/min cf_own:1458.15/1458.1
max/min cf_nei:1458.15/1458.1
max/min alpha_own: 0.00203016/0
max/min alpha_nei: 1.37111e-14/-0
DILUPBiCGStab:  Solving for p, Initial residual = 1.92082e-08, Final residual = 1.22283e-24, No Iterations 1
max(mag(U)): 0.0309284
max/min p: 1e+07/1e+06
diagonal:  Solving for rho, Initial residual = 0, Final residual = 0, No Iterations 0
rho max/min : 1037.87 / 1033.44
time step continuity errors : sum local = 5.18675e-17, global = 2.82664e-17, cumulative = 0
max/min cSf: 0.583261/0.583251
max/min amaxSf: 0.584452/0.583251
max/min FaceSonicCourant: 0.00580528/0.00290259
max/min kappa: 1/0
PIMPLE: iteration 3
diagonal:  Solving for rho, Initial residual = 0, Final residual = 0, No Iterations 0
rho max/min : 1037.87 / 1033.44
DILUPBiCGStab:  Solving for Y.Liq, Initial residual = 0.0190985, Final residual = 1.69629e-19, No Iterations 1
Mass fraction min/max = 1/1
DILUPBiCGStab:  Solving for h, Initial residual = 0.000766642, Final residual = 4.69357e-25, No Iterations 1
max/min T: 293.01/292.99
max/min cf_own:1458.15/1458.1
max/min cf_nei:1458.15/1458.1
max/min alpha_own: 0.00203019/0
max/min alpha_nei: 1.36984e-14/-0
DILUPBiCGStab:  Solving for p, Initial residual = 7.22949e-11, Final residual = 1.79361e-27, No Iterations 1
max(mag(U)): 0.0309581
max/min p: 1e+07/1e+06
diagonal:  Solving for rho, Initial residual = 0, Final residual = 0, No Iterations 0
rho max/min : 1037.87 / 1033.44
time step continuity errors : sum local = 4.91232e-17, global = 2.55221e-17, cumulative = 0
max/min cSf: 0.583261/0.583251
max/min amaxSf: 0.584452/0.583251
max/min FaceSonicCourant: 0.00580528/0.00290259
max/min kappa: 1/0
ExecutionTime = 0.07 s  ClockTime = 0 s

Mean and max Characteristic Courant Numbers = 0.00290265 0.00580528
Courant Number max: 2.99897e-06
deltaT = 2.98597e-09
Time = 1.19159e-08

PIMPLE: iteration 1
diagonal:  Solving for rho, Initial residual = 0, Final residual = 0, No Iterations 0
rho max/min : 1037.87 / 1033.44
DILUPBiCGStab:  Solving for Y.Liq, Initial residual = 0.270522, Final residual = 4.14262e-19, No Iterations 1
Mass fraction min/max = 1/1
DILUPBiCGStab:  Solving for h, Initial residual = 0.143109, Final residual = 1.0364e-19, No Iterations 1
max/min T: 293.014/292.986
max/min cf_own:1458.16/1458.09
max/min cf_nei:1458.16/1458.09
max/min alpha_own: 0.00203015/0
max/min alpha_nei: 1.37033e-14/-0
DILUPBiCGStab:  Solving for p, Initial residual = 4.18846e-06, Final residual = 1.72687e-26, No Iterations 1
max(mag(U)): 0.041209
max/min p: 1e+07/1e+06
diagonal:  Solving for rho, Initial residual = 0, Final residual = 0, No Iterations 0
rho max/min : 1037.87 / 1033.44
time step continuity errors : sum local = 9.63254e-17, global = -1.89358e-17, cumulative = 0
max/min cSf: 0.583264/0.583251
max/min amaxSf: 0.584457/0.583251
max/min FaceSonicCourant: 0.00696627/0.00348305
max/min kappa: 1/0
PIMPLE: iteration 2
diagonal:  Solving for rho, Initial residual = 0, Final residual = 0, No Iterations 0
rho max/min : 1037.87 / 1033.44
DILUPBiCGStab:  Solving for Y.Liq, Initial residual = 0.155477, Final residual = 1.96152e-19, No Iterations 1
Mass fraction min/max = 1/1
DILUPBiCGStab:  Solving for h, Initial residual = 0.000138662, Final residual = 1.2332e-20, No Iterations 1
max/min T: 293.014/292.986
max/min cf_own:1458.16/1458.09
max/min cf_nei:1458.16/1458.09
max/min alpha_own: 0.00202709/0
max/min alpha_nei: 1.82898e-14/-0
DILUPBiCGStab:  Solving for p, Initial residual = 2.75868e-08, Final residual = 2.92908e-24, No Iterations 1
max(mag(U)): 0.0412093
max/min p: 1e+07/1e+06
diagonal:  Solving for rho, Initial residual = 0, Final residual = 0, No Iterations 0
rho max/min : 1037.87 / 1033.44
time step continuity errors : sum local = 1.0154e-16, global = -1.81125e-17, cumulative = 0
max/min cSf: 0.583264/0.583251
max/min amaxSf: 0.584455/0.583251
max/min FaceSonicCourant: 0.00696627/0.00348305
max/min kappa: 1/0
PIMPLE: iteration 3
diagonal:  Solving for rho, Initial residual = 0, Final residual = 0, No Iterations 0
rho max/min : 1037.87 / 1033.44
DILUPBiCGStab:  Solving for Y.Liq, Initial residual = 0.178537, Final residual = 2.05797e-18, No Iterations 1
Mass fraction min/max = 1/1
DILUPBiCGStab:  Solving for h, Initial residual = 0.000825126, Final residual = 1.35852e-19, No Iterations 1
max/min T: 293.014/292.986
max/min cf_own:1458.16/1458.09
max/min cf_nei:1458.16/1458.09
max/min alpha_own: 0.00202714/0
max/min alpha_nei: 1.35949e-14/-0
DILUPBiCGStab:  Solving for p, Initial residual = 1.08179e-10, Final residual = 1.69157e-26, No Iterations 1
max(mag(U)): 0.041252
max/min p: 1e+07/1e+06
diagonal:  Solving for rho, Initial residual = 0, Final residual = 0, No Iterations 0
rho max/min : 1037.87 / 1033.44
time step continuity errors : sum local = 1.13066e-16, global = -7.13522e-18, cumulative = 0
max/min cSf: 0.583264/0.583251
max/min amaxSf: 0.584455/0.583251
max/min FaceSonicCourant: 0.00696627/0.00348305
max/min kappa: 1/0
ExecutionTime = 0.08 s  ClockTime = 0 s

Mean and max Characteristic Courant Numbers = 0.00348314 0.00696627
Courant Number max: 3.60653e-06
deltaT = 3.58316e-09
Time = 1.54991e-08

PIMPLE: iteration 1
diagonal:  Solving for rho, Initial residual = 0, Final residual = 0, No Iterations 0
rho max/min : 1037.87 / 1033.44
DILUPBiCGStab:  Solving for Y.Liq, Initial residual = 0.172819, Final residual = 6.51977e-19, No Iterations 1
Mass fraction min/max = 1/1
DILUPBiCGStab:  Solving for h, Initial residual = 0.130539, Final residual = 1.21762e-17, No Iterations 1
max/min T: 293.018/292.982
max/min cf_own:1458.17/1458.08
max/min cf_nei:1458.17/1458.08
max/min alpha_own: 0.00202708/0
max/min alpha_nei: 1.81683e-14/-0
DILUPBiCGStab:  Solving for p, Initial residual = 5.02542e-06, Final residual = 7.02975e-24, No Iterations 1
max(mag(U)): 0.0535046
max/min p: 1e+07/1e+06
diagonal:  Solving for rho, Initial residual = 0, Final residual = 0, No Iterations 0
rho max/min : 1037.87 / 1033.44
time step continuity errors : sum local = 9.68743e-17, global = -5.13187e-17, cumulative = 0
max/min cSf: 0.583269/0.583251
max/min amaxSf: 0.584461/0.583251
max/min FaceSonicCourant: 0.00835952/0.00417963
max/min kappa: 1/0
PIMPLE: iteration 2
diagonal:  Solving for rho, Initial residual = 0, Final residual = 0, No Iterations 0
rho max/min : 1037.87 / 1033.44
DILUPBiCGStab:  Solving for Y.Liq, Initial residual = 0.147568, Final residual = 1.83055e-19, No Iterations 1
Mass fraction min/max = 1/1
DILUPBiCGStab:  Solving for h, Initial residual = 0.000152074, Final residual = 2.12089e-20, No Iterations 1
max/min T: 293.018/292.982
max/min cf_own:1458.17/1458.08
max/min cf_nei:1458.17/1458.08
max/min alpha_own: 0.00202343/0
max/min alpha_nei: 2.73542e-14/-0
DILUPBiCGStab:  Solving for p, Initial residual = 3.95987e-08, Final residual = 1.7609e-24, No Iterations 1
max(mag(U)): 0.053505
max/min p: 1e+07/1e+06
diagonal:  Solving for rho, Initial residual = 0, Final residual = 0, No Iterations 0
rho max/min : 1037.87 / 1033.44
time step continuity errors : sum local = 8.0134e-17, global = -5.70817e-17, cumulative = 0
max/min cSf: 0.583269/0.583251
max/min amaxSf: 0.584459/0.583251
max/min FaceSonicCourant: 0.00835952/0.00417963
max/min kappa: 1/0
PIMPLE: iteration 3
diagonal:  Solving for rho, Initial residual = 0, Final residual = 0, No Iterations 0
rho max/min : 1037.87 / 1033.44
DILUPBiCGStab:  Solving for Y.Liq, Initial residual = 0.154418, Final residual = 1.83356e-19, No Iterations 1
Mass fraction min/max = 1/1
DILUPBiCGStab:  Solving for h, Initial residual = 0.000910653, Final residual = 6.27527e-20, No Iterations 1
max/min T: 293.018/292.982
max/min cf_own:1458.17/1458.08
max/min cf_nei:1458.17/1458.08
max/min alpha_own: 0.0020235/0
max/min alpha_nei: 2.72986e-14/-0
DILUPBiCGStab:  Solving for p, Initial residual = 1.95101e-10, Final residual = 1.2872e-26, No Iterations 1
max(mag(U)): 0.0535664
max/min p: 1e+07/1e+06
diagonal:  Solving for rho, Initial residual = 0, Final residual = 0, No Iterations 0
rho max/min : 1037.87 / 1033.44
time step continuity errors : sum local = 8.2055e-17, global = -5.62584e-17, cumulative = 0
max/min cSf: 0.583269/0.583251
max/min amaxSf: 0.584459/0.583251
max/min FaceSonicCourant: 0.00835952/0.00417963
max/min kappa: 1/0
ExecutionTime = 0.09 s  ClockTime = 0 s

Mean and max Characteristic Courant Numbers = 0.00417977 0.00835952
Courant Number max: 4.33908e-06
deltaT = 4.29985e-09
Time = 1.9799e-08

PIMPLE: iteration 1
diagonal:  Solving for rho, Initial residual = 0, Final residual = 0, No Iterations 0
rho max/min : 1037.87 / 1033.44
DILUPBiCGStab:  Solving for Y.Liq, Initial residual = 0.158293, Final residual = 1.49949e-18, No Iterations 1
Mass fraction min/max = 1/1
DILUPBiCGStab:  Solving for h, Initial residual = 0.121628, Final residual = 6.87419e-22, No Iterations 1
max/min T: 293.023/292.977
max/min cf_own:1458.18/1458.07
max/min cf_nei:1458.18/1458.07
max/min alpha_own: 0.00202342/0
max/min alpha_nei: 2.73128e-14/-0
DILUPBiCGStab:  Solving for p, Initial residual = 6.02956e-06, Final residual = 5.55718e-22, No Iterations 1
max(mag(U)): 0.0682003
max/min p: 1e+07/1e+06
diagonal:  Solving for rho, Initial residual = 0, Final residual = 0, No Iterations 0
rho max/min : 1037.87 / 1033.44
time step continuity errors : sum local = 4.47323e-17, global = -1.92102e-18, cumulative = 0
max/min cSf: 0.583273/0.58325
max/min amaxSf: 0.584465/0.583251
max/min FaceSonicCourant: 0.0100316/0.00501559
max/min kappa: 1/0
PIMPLE: iteration 2
diagonal:  Solving for rho, Initial residual = 0, Final residual = 0, No Iterations 0
rho max/min : 1037.87 / 1033.44
DILUPBiCGStab:  Solving for Y.Liq, Initial residual = 0.0153196, Final residual = 7.03786e-19, No Iterations 1
Mass fraction min/max = 1/1
DILUPBiCGStab:  Solving for h, Initial residual = 0.000169512, Final residual = 1.06077e-20, No Iterations 1
max/min T: 293.023/292.977
max/min cf_own:1458.18/1458.07
max/min cf_nei:1458.18/1458.07
max/min alpha_own: 0.00201908/0
max/min alpha_nei: 2.28156e-14/-0
DILUPBiCGStab:  Solving for p, Initial residual = 5.68068e-08, Final residual = 8.45247e-24, No Iterations 1
max(mag(U)): 0.0682009
max/min p: 1e+07/1e+06
diagonal:  Solving for rho, Initial residual = 0, Final residual = 0, No Iterations 0
rho max/min : 1037.87 / 1033.44
time step continuity errors : sum local = 4.50068e-17, global = -6.03749e-18, cumulative = 0
max/min cSf: 0.583273/0.58325
max/min amaxSf: 0.584463/0.583251
max/min FaceSonicCourant: 0.0100316/0.00501559
max/min kappa: 1/0
PIMPLE: iteration 3
diagonal:  Solving for rho, Initial residual = 0, Final residual = 0, No Iterations 0
rho max/min : 1037.87 / 1033.44
DILUPBiCGStab:  Solving for Y.Liq, Initial residual = 0.0619748, Final residual = 2.3324e-18, No Iterations 1
Mass fraction min/max = 1/1
DILUPBiCGStab:  Solving for h, Initial residual = 0.00102282, Final residual = 7.87181e-20, No Iterations 1
max/min T: 293.023/292.977
max/min cf_own:1458.18/1458.07
max/min cf_nei:1458.18/1458.07
max/min alpha_own: 0.00201919/0
max/min alpha_nei: 2.27549e-14/-0
DILUPBiCGStab:  Solving for p, Initial residual = 3.49369e-10, Final residual = 1.24229e-26, No Iterations 1
max(mag(U)): 0.0682892
max/min p: 1e+07/1e+06
diagonal:  Solving for rho, Initial residual = 0, Final residual = 0, No Iterations 0
rho max/min : 1037.87 / 1033.44
time step continuity errors : sum local = 4.52812e-17, global = -2.46988e-18, cumulative = 0
max/min cSf: 0.583273/0.58325
max/min amaxSf: 0.584463/0.583251
max/min FaceSonicCourant: 0.0100316/0.00501559
max/min kappa: 1/0
ExecutionTime = 0.1 s  ClockTime = 0 s

Mean and max Characteristic Courant Numbers = 0.0050158 0.0100316
Courant Number max: 5.22318e-06
deltaT = 5.15974e-09
Time = 2.49587e-08

PIMPLE: iteration 1
diagonal:  Solving for rho, Initial residual = 0, Final residual = 0, No Iterations 0
rho max/min : 1037.87 / 1033.44
DILUPBiCGStab:  Solving for Y.Liq, Initial residual = 0.224159, Final residual = 8.08818e-18, No Iterations 1
Mass fraction min/max = 1/1
DILUPBiCGStab:  Solving for h, Initial residual = 0.11507, Final residual = 3.28181e-17, No Iterations 1
max/min T: 293.029/292.971
max/min cf_own:1458.2/1458.06
max/min cf_nei:1458.2/1458.06
max/min alpha_own: 0.00201908/0
max/min alpha_nei: 2.72864e-14/-0
DILUPBiCGStab:  Solving for p, Initial residual = 7.23388e-06, Final residual = 1.32385e-21, No Iterations 1
max(mag(U)): 0.0857605
max/min p: 1e+07/1e+06
diagonal:  Solving for rho, Initial residual = 0, Final residual = 0, No Iterations 0
rho max/min : 1037.87 / 1033.44
time step continuity errors : sum local = 8.3976e-17, global = -4.55556e-17, cumulative = 0
max/min cSf: 0.583279/0.58325
max/min amaxSf: 0.584471/0.583251
max/min FaceSonicCourant: 0.0120377/0.00601855
max/min kappa: 1/0
PIMPLE: iteration 2
diagonal:  Solving for rho, Initial residual = 0, Final residual = 0, No Iterations 0
rho max/min : 1037.87 / 1033.44
DILUPBiCGStab:  Solving for Y.Liq, Initial residual = 0.101488, Final residual = 4.80746e-18, No Iterations 1
Mass fraction min/max = 1/1
DILUPBiCGStab:  Solving for h, Initial residual = 0.000190973, Final residual = 2.04906e-20, No Iterations 1
max/min T: 293.029/292.971
max/min cf_own:1458.2/1458.06
max/min cf_nei:1458.2/1458.06
max/min alpha_own: 0.00201392/0
max/min alpha_nei: 3.16251e-14/-0
DILUPBiCGStab:  Solving for p, Initial residual = 8.14251e-08, Final residual = 7.65699e-24, No Iterations 1
max(mag(U)): 0.0857591
max/min p: 1e+07/1e+06
diagonal:  Solving for rho, Initial residual = 0, Final residual = 0, No Iterations 0
rho max/min : 1037.87 / 1033.44
time step continuity errors : sum local = 6.77846e-17, global = -2.66198e-17, cumulative = 0
max/min cSf: 0.583279/0.58325
max/min amaxSf: 0.584468/0.583251
max/min FaceSonicCourant: 0.0120377/0.00601855
max/min kappa: 1/0
PIMPLE: iteration 3
diagonal:  Solving for rho, Initial residual = 0, Final residual = 0, No Iterations 0
rho max/min : 1037.87 / 1033.44
DILUPBiCGStab:  Solving for Y.Liq, Initial residual = 0.116655, Final residual = 5.01584e-18, No Iterations 1
Mass fraction min/max = 1/1
DILUPBiCGStab:  Solving for h, Initial residual = 0.00116323, Final residual = 1.502e-19, No Iterations 1
max/min T: 293.029/292.971
max/min cf_own:1458.2/1458.06
max/min cf_nei:1458.2/1458.06
max/min alpha_own: 0.00201407/0
max/min alpha_nei: 2.95043e-14/-0
DILUPBiCGStab:  Solving for p, Initial residual = 6.19242e-10, Final residual = 2.22288e-26, No Iterations 1
max(mag(U)): 0.0858777
max/min p: 1e+07/1e+06
diagonal:  Solving for rho, Initial residual = 0, Final residual = 0, No Iterations 0
rho max/min : 1037.87 / 1033.44
time step continuity errors : sum local = 6.72357e-17, global = -2.44244e-17, cumulative = 0
max/min cSf: 0.583279/0.58325
max/min amaxSf: 0.584468/0.583251
max/min FaceSonicCourant: 0.0120377/0.00601855
max/min kappa: 1/0
ExecutionTime = 0.11 s  ClockTime = 0 s

Mean and max Characteristic Courant Numbers = 0.00601886 0.0120377
Courant Number max: 6.29109e-06
deltaT = 6.19156e-09
Time = 3.11503e-08

PIMPLE: iteration 1
diagonal:  Solving for rho, Initial residual = 0, Final residual = 0, No Iterations 0
rho max/min : 1037.87 / 1033.44
DILUPBiCGStab:  Solving for Y.Liq, Initial residual = 0.219033, Final residual = 2.76717e-18, No Iterations 1
Mass fraction min/max = 1/1
DILUPBiCGStab:  Solving for h, Initial residual = 0.110113, Final residual = 1.01983e-23, No Iterations 1
max/min T: 293.036/292.964
max/min cf_own:1458.22/1458.04
max/min cf_nei:1458.22/1458.04
max/min alpha_own: 0.00201393/0
max/min alpha_nei: 3.1722e-14/-0
DILUPBiCGStab:  Solving for p, Initial residual = 8.67841e-06, Final residual = 2.43441e-23, No Iterations 1
max(mag(U)): 0.106765
max/min p: 1e+07/1e+06
diagonal:  Solving for rho, Initial residual = 0, Final residual = 0, No Iterations 0
rho max/min : 1037.87 / 1033.44
time step continuity errors : sum local = 9.02879e-17, global = -4.30857e-17, cumulative = 0
max/min cSf: 0.583286/0.58325
max/min amaxSf: 0.584478/0.583251
max/min FaceSonicCourant: 0.0144449/0.00722202
max/min kappa: 1/0
PIMPLE: iteration 2
diagonal:  Solving for rho, Initial residual = 0, Final residual = 0, No Iterations 0
rho max/min : 1037.87 / 1033.44
DILUPBiCGStab:  Solving for Y.Liq, Initial residual = 0.186865, Final residual = 2.0833e-18, No Iterations 1
Mass fraction min/max = 1/1
DILUPBiCGStab:  Solving for h, Initial residual = 0.000216733, Final residual = 1.9111e-20, No Iterations 1
max/min T: 293.036/292.964
max/min cf_own:1458.22/1458.04
max/min cf_nei:1458.22/1458.04
max/min alpha_own: 0.00200782/0
max/min alpha_nei: 3.64099e-14/-0
DILUPBiCGStab:  Solving for p, Initial residual = 1.16601e-07, Final residual = 9.18888e-24, No Iterations 1
max(mag(U)): 0.106763
max/min p: 1e+07/1e+06
diagonal:  Solving for rho, Initial residual = 0, Final residual = 0, No Iterations 0
rho max/min : 1037.87 / 1033.44
time step continuity errors : sum local = 8.89158e-17, global = -4.55556e-17, cumulative = 0
max/min cSf: 0.583286/0.58325
max/min amaxSf: 0.584474/0.583251
max/min FaceSonicCourant: 0.0144449/0.00722202
max/min kappa: 1/0
PIMPLE: iteration 3
diagonal:  Solving for rho, Initial residual = 0, Final residual = 0, No Iterations 0
rho max/min : 1037.87 / 1033.44
DILUPBiCGStab:  Solving for Y.Liq, Initial residual = 0.212883, Final residual = 4.09902e-18, No Iterations 1
Mass fraction min/max = 1/1
DILUPBiCGStab:  Solving for h, Initial residual = 0.001335, Final residual = 1.0883e-19, No Iterations 1
max/min T: 293.036/292.964
max/min cf_own:1458.22/1458.04
max/min cf_nei:1458.22/1458.04
max/min alpha_own: 0.00200803/0
max/min alpha_nei: 3.61305e-14/-0
DILUPBiCGStab:  Solving for p, Initial residual = 1.09615e-09, Final residual = 3.67101e-26, No Iterations 1
max(mag(U)): 0.106871
max/min p: 1e+07/1e+06
diagonal:  Solving for rho, Initial residual = 0, Final residual = 0, No Iterations 0
rho max/min : 1037.87 / 1033.44
time step continuity errors : sum local = 8.47993e-17, global = -4.41835e-17, cumulative = 0
max/min cSf: 0.583286/0.58325
max/min amaxSf: 0.584474/0.583251
max/min FaceSonicCourant: 0.0144449/0.00722202
max/min kappa: 1/0
ExecutionTime = 0.11 s  ClockTime = 0 s

Mean and max Characteristic Courant Numbers = 0.00722248 0.0144449
Courant Number max: 7.58288e-06
deltaT = 7.42987e-09
Time = 3.85801e-08

PIMPLE: iteration 1
diagonal:  Solving for rho, Initial residual = 0, Final residual = 0, No Iterations 0
rho max/min : 1037.87 / 1033.44
DILUPBiCGStab:  Solving for Y.Liq, Initial residual = 0.249284, Final residual = 2.4654e-18, No Iterations 1
Mass fraction min/max = 1/1
DILUPBiCGStab:  Solving for h, Initial residual = 0.106288, Final residual = 2.40737e-21, No Iterations 1
max/min T: 293.044/292.956
max/min cf_own:1458.24/1458.02
max/min cf_nei:1458.24/1458.02
max/min alpha_own: 0.00200783/0
max/min alpha_nei: 3.58784e-14/-0
DILUPBiCGStab:  Solving for p, Initial residual = 1.04112e-05, Final residual = 1.97958e-21, No Iterations 1
max(mag(U)): 0.13183
max/min p: 1e+07/1e+06
diagonal:  Solving for rho, Initial residual = 0, Final residual = 0, No Iterations 0
rho max/min : 1037.87 / 1033.44
time step continuity errors : sum local = 1.21024e-16, global = -2.11312e-17, cumulative = 0
max/min cSf: 0.583294/0.58325
max/min amaxSf: 0.584485/0.583251
max/min FaceSonicCourant: 0.0173339/0.0086663
max/min kappa: 1/0
PIMPLE: iteration 2
diagonal:  Solving for rho, Initial residual = 0, Final residual = 0, No Iterations 0
rho max/min : 1037.87 / 1033.44
DILUPBiCGStab:  Solving for Y.Liq, Initial residual = 0.182838, Final residual = 6.59539e-19, No Iterations 1
Mass fraction min/max = 1/1
DILUPBiCGStab:  Solving for h, Initial residual = 0.000247038, Final residual = 3.48312e-20, No Iterations 1
max/min T: 293.044/292.956
max/min cf_own:1458.24/1458.02
max/min cf_nei:1458.24/1458.02
max/min alpha_own: 0.00200061/0
max/min alpha_nei: 4.56367e-14/-0
DILUPBiCGStab:  Solving for p, Initial residual = 1.66791e-07, Final residual = 2.92137e-23, No Iterations 1
max(mag(U)): 0.131826
max/min p: 1e+07/1e+06
diagonal:  Solving for rho, Initial residual = 0, Final residual = 0, No Iterations 0
rho max/min : 1037.87 / 1033.44
time step continuity errors : sum local = 1.20201e-16, global = -2.74431e-17, cumulative = 0
max/min cSf: 0.583294/0.58325
max/min amaxSf: 0.584481/0.583251
max/min FaceSonicCourant: 0.0173339/0.0086663
max/min kappa: 1/0
PIMPLE: iteration 3
diagonal:  Solving for rho, Initial residual = 0, Final residual = 0, No Iterations 0
rho max/min : 1037.87 / 1033.44
DILUPBiCGStab:  Solving for Y.Liq, Initial residual = 0.189907, Final residual = 3.68601e-19, No Iterations 1
Mass fraction min/max = 1/1
DILUPBiCGStab:  Solving for h, Initial residual = 0.00154237, Final residual = 1.10468e-21, No Iterations 1
max/min T: 293.044/292.956
max/min cf_own:1458.24/1458.02
max/min cf_nei:1458.24/1458.02
max/min alpha_own: 0.00200091/0
max/min alpha_nei: 4.06705e-14/-0
DILUPBiCGStab:  Solving for p, Initial residual = 2.01499e-09, Final residual = 1.42356e-25, No Iterations 1
max(mag(U)): 0.131903
max/min p: 1e+07/1e+06
diagonal:  Solving for rho, Initial residual = 0, Final residual = 0, No Iterations 0
rho max/min : 1037.87 / 1033.44
time step continuity errors : sum local = 1.10047e-16, global = -2.88153e-17, cumulative = 0
max/min cSf: 0.583294/0.58325
max/min amaxSf: 0.584481/0.583251
max/min FaceSonicCourant: 0.0173339/0.0086663
max/min kappa: 1/0
ExecutionTime = 0.12 s  ClockTime = 0 s

Mean and max Characteristic Courant Numbers = 0.00866698 0.0173339
Courant Number max: 9.14811e-06
deltaT = 8.91557e-09
Time = 4.74957e-08

PIMPLE: iteration 1
diagonal:  Solving for rho, Initial residual = 0, Final residual = 0, No Iterations 0
rho max/min : 1037.87 / 1033.44
DILUPBiCGStab:  Solving for Y.Liq, Initial residual = 0.127783, Final residual = 4.08407e-18, No Iterations 1
Mass fraction min/max = 1/1
DILUPBiCGStab:  Solving for h, Initial residual = 0.103286, Final residual = 1.97819e-17, No Iterations 1
max/min T: 293.054/292.946
max/min cf_own:1458.26/1457.99
max/min cf_nei:1458.26/1457.99
max/min alpha_own: 0.00200065/0
max/min alpha_nei: 4.04646e-14/-0
DILUPBiCGStab:  Solving for p, Initial residual = 1.24891e-05, Final residual = 7.09301e-23, No Iterations 1
max(mag(U)): 0.161703
max/min p: 1e+07/1e+06
diagonal:  Solving for rho, Initial residual = 0, Final residual = 0, No Iterations 0
rho max/min : 1037.87 / 1033.44
time step continuity errors : sum local = 5.92772e-17, global = -1.09773e-18, cumulative = 0
max/min cSf: 0.583304/0.583249
max/min amaxSf: 0.584495/0.583251
max/min FaceSonicCourant: 0.0208001/0.0103991
max/min kappa: 1/0
PIMPLE: iteration 2
diagonal:  Solving for rho, Initial residual = 0, Final residual = 0, No Iterations 0
rho max/min : 1037.87 / 1033.44
DILUPBiCGStab:  Solving for Y.Liq, Initial residual = 0.0722433, Final residual = 3.3771e-18, No Iterations 1
Mass fraction min/max = 1/1
DILUPBiCGStab:  Solving for h, Initial residual = 0.000282131, Final residual = 3.40016e-20, No Iterations 1
max/min T: 293.054/292.946
max/min cf_own:1458.26/1457.99
max/min cf_nei:1458.26/1457.99
max/min alpha_own: 0.00199214/0
max/min alpha_nei: 3.55698e-14/-0
DILUPBiCGStab:  Solving for p, Initial residual = 2.38282e-07, Final residual = 1.77338e-23, No Iterations 1
max(mag(U)): 0.161697
max/min p: 1e+07/1e+06
diagonal:  Solving for rho, Initial residual = 0, Final residual = 0, No Iterations 0
rho max/min : 1037.87 / 1033.44
time step continuity errors : sum local = 5.7905e-17, global = 5.2142e-18, cumulative = 0
max/min cSf: 0.583304/0.583249
max/min amaxSf: 0.58449/0.583251
max/min FaceSonicCourant: 0.0208001/0.0103991
max/min kappa: 1/0
PIMPLE: iteration 3
diagonal:  Solving for rho, Initial residual = 0, Final residual = 0, No Iterations 0
rho max/min : 1037.87 / 1033.44
DILUPBiCGStab:  Solving for Y.Liq, Initial residual = 0.107126, Final residual = 4.66304e-18, No Iterations 1
Mass fraction min/max = 1/1
DILUPBiCGStab:  Solving for h, Initial residual = 0.00179053, Final residual = 1.37863e-19, No Iterations 1
max/min T: 293.054/292.946
max/min cf_own:1458.26/1457.99
max/min cf_nei:1458.26/1457.99
max/min alpha_own: 0.00199257/0
max/min alpha_nei: 3.5816e-14/-0
DILUPBiCGStab:  Solving for p, Initial residual = 3.64011e-09, Final residual = 4.0979e-25, No Iterations 1
max(mag(U)): 0.161711
max/min p: 1e+07/1e+06
diagonal:  Solving for rho, Initial residual = 0, Final residual = 0, No Iterations 0
rho max/min : 1037.87 / 1033.44
time step continuity errors : sum local = 5.76306e-17, global = 2.74431e-18, cumulative = 0
max/min cSf: 0.583304/0.583249
max/min amaxSf: 0.58449/0.583251
max/min FaceSonicCourant: 0.0208001/0.0103991
max/min kappa: 1/0
ExecutionTime = 0.13 s  ClockTime = 0 s

Mean and max Characteristic Courant Numbers = 0.0104001 0.0208001
Courant Number max: 1.10476e-05
deltaT = 1.06981e-08
Time = 5.81938e-08

PIMPLE: iteration 1
diagonal:  Solving for rho, Initial residual = 0, Final residual = 0, No Iterations 0
rho max/min : 1037.87 / 1033.44
DILUPBiCGStab:  Solving for Y.Liq, Initial residual = 0.191121, Final residual = 4.56832e-18, No Iterations 1
Mass fraction min/max = 1/1
DILUPBiCGStab:  Solving for h, Initial residual = 0.100897, Final residual = 9.39455e-18, No Iterations 1
max/min T: 293.066/292.934
max/min cf_own:1458.29/1457.96
max/min cf_nei:1458.29/1457.96
max/min alpha_own: 0.00199222/0
max/min alpha_nei: 4.07758e-14/-0
DILUPBiCGStab:  Solving for p, Initial residual = 1.49806e-05, Final residual = 1.28993e-22, No Iterations 1
max(mag(U)): 0.197256
max/min p: 1e+07/1e+06
diagonal:  Solving for rho, Initial residual = 0, Final residual = 0, No Iterations 0
rho max/min : 1037.87 / 1033.44
time step continuity errors : sum local = 1.39686e-16, global = 7.87618e-17, cumulative = 0
max/min cSf: 0.583316/0.583248
max/min amaxSf: 0.584506/0.583251
max/min FaceSonicCourant: 0.0249587/0.012478
max/min kappa: 1/0
PIMPLE: iteration 2
diagonal:  Solving for rho, Initial residual = 0, Final residual = 0, No Iterations 0
rho max/min : 1037.87 / 1033.44
DILUPBiCGStab:  Solving for Y.Liq, Initial residual = 0.120615, Final residual = 3.46778e-18, No Iterations 1
Mass fraction min/max = 1/1
DILUPBiCGStab:  Solving for h, Initial residual = 0.000322187, Final residual = 5.48303e-20, No Iterations 1
max/min T: 293.066/292.934
max/min cf_own:1458.29/1457.96
max/min cf_nei:1458.29/1457.96
max/min alpha_own: 0.00198222/0
max/min alpha_nei: 4.1953e-14/-0
DILUPBiCGStab:  Solving for p, Initial residual = 3.39883e-07, Final residual = 1.08076e-23, No Iterations 1
max(mag(U)): 0.197247
max/min p: 1e+07/1e+06
diagonal:  Solving for rho, Initial residual = 0, Final residual = 0, No Iterations 0
rho max/min : 1037.87 / 1033.44
time step continuity errors : sum local = 1.08675e-16, global = 5.04954e-17, cumulative = 0
max/min cSf: 0.583316/0.583248
max/min amaxSf: 0.5845/0.583251
max/min FaceSonicCourant: 0.0249587/0.012478
max/min kappa: 1/0
PIMPLE: iteration 3
diagonal:  Solving for rho, Initial residual = 0, Final residual = 0, No Iterations 0
rho max/min : 1037.87 / 1033.44
DILUPBiCGStab:  Solving for Y.Liq, Initial residual = 0.112602, Final residual = 3.24502e-18, No Iterations 1
Mass fraction min/max = 1/1
DILUPBiCGStab:  Solving for h, Initial residual = 0.00208537, Final residual = 3.34622e-19, No Iterations 1
max/min T: 293.065/292.934
max/min cf_own:1458.29/1457.96
max/min cf_nei:1458.29/1457.96
max/min alpha_own: 0.00198283/0
max/min alpha_nei: 3.92755e-14/-0
DILUPBiCGStab:  Solving for p, Initial residual = 6.48438e-09, Final residual = 7.5847e-25, No Iterations 1
max(mag(U)): 0.197153
max/min p: 1e+07/1e+06
diagonal:  Solving for rho, Initial residual = 0, Final residual = 0, No Iterations 0
rho max/min : 1037.87 / 1033.44
time step continuity errors : sum local = 1.06479e-16, global = 4.77511e-17, cumulative = 0
max/min cSf: 0.583316/0.583248
max/min amaxSf: 0.5845/0.583251
max/min FaceSonicCourant: 0.0249587/0.012478
max/min kappa: 1/0
ExecutionTime = 0.14 s  ClockTime = 0 s

Mean and max Characteristic Courant Numbers = 0.0124794 0.0249587
Courant Number max: 1.33578e-05
deltaT = 1.28377e-08
Time = 7.10316e-08

PIMPLE: iteration 1
diagonal:  Solving for rho, Initial residual = 0, Final residual = 0, No Iterations 0
rho max/min : 1037.87 / 1033.44
DILUPBiCGStab:  Solving for Y.Liq, Initial residual = 0.155198, Final residual = 2.34201e-18, No Iterations 1
Mass fraction min/max = 1/1
DILUPBiCGStab:  Solving for h, Initial residual = 0.0989828, Final residual = 1.03871e-17, No Iterations 1
max/min T: 293.079/292.92
max/min cf_own:1458.32/1457.93
max/min cf_nei:1458.32/1457.93
max/min alpha_own: 0.00198235/0
max/min alpha_nei: 3.61281e-14/-0
DILUPBiCGStab:  Solving for p, Initial residual = 1.79693e-05, Final residual = 3.37044e-21, No Iterations 1
max(mag(U)): 0.239497
max/min p: 1e+07/1e+06
diagonal:  Solving for rho, Initial residual = 0, Final residual = 0, No Iterations 0
rho max/min : 1037.87 / 1033.44
time step continuity errors : sum local = 9.63254e-17, global = 2.55221e-17, cumulative = 0
max/min cSf: 0.58333/0.583247
max/min amaxSf: 0.584519/0.583251
max/min FaceSonicCourant: 0.0299505/0.0149732
max/min kappa: 1/0
PIMPLE: iteration 2
diagonal:  Solving for rho, Initial residual = 0, Final residual = 0, No Iterations 0
rho max/min : 1037.87 / 1033.44
DILUPBiCGStab:  Solving for Y.Liq, Initial residual = 0.11132, Final residual = 2.86812e-18, No Iterations 1
Mass fraction min/max = 1/1
DILUPBiCGStab:  Solving for h, Initial residual = 0.000367318, Final residual = 1.0313e-19, No Iterations 1
max/min T: 293.08/292.92
max/min cf_own:1458.32/1457.93
max/min cf_nei:1458.32/1457.93
max/min alpha_own: 0.00197067/0
max/min alpha_nei: 5.9373e-14/-0
DILUPBiCGStab:  Solving for p, Initial residual = 4.8395e-07, Final residual = 4.05215e-25, No Iterations 1
max(mag(U)): 0.239481
max/min p: 1e+07/1e+06
diagonal:  Solving for rho, Initial residual = 0, Final residual = 0, No Iterations 0
rho max/min : 1037.87 / 1033.44
time step continuity errors : sum local = 9.68743e-17, global = 3.54017e-17, cumulative = 0
max/min cSf: 0.58333/0.583247
max/min amaxSf: 0.584512/0.583251
max/min FaceSonicCourant: 0.0299505/0.0149732
max/min kappa: 1/0
PIMPLE: iteration 3
diagonal:  Solving for rho, Initial residual = 0, Final residual = 0, No Iterations 0
rho max/min : 1037.87 / 1033.44
DILUPBiCGStab:  Solving for Y.Liq, Initial residual = 0.11907, Final residual = 4.38925e-18, No Iterations 1
Mass fraction min/max = 1/1
DILUPBiCGStab:  Solving for h, Initial residual = 0.00243382, Final residual = 2.63901e-19, No Iterations 1
max/min T: 293.079/292.921
max/min cf_own:1458.32/1457.93
max/min cf_nei:1458.32/1457.93
max/min alpha_own: 0.00197153/0
max/min alpha_nei: 4.80787e-14/-0
DILUPBiCGStab:  Solving for p, Initial residual = 1.14186e-08, Final residual = 1.03756e-24, No Iterations 1
max(mag(U)): 0.239218
max/min p: 1e+07/1e+06
diagonal:  Solving for rho, Initial residual = 0, Final residual = 0, No Iterations 0
rho max/min : 1037.87 / 1033.44
time step continuity errors : sum local = 9.85209e-17, global = 2.88153e-17, cumulative = 0
max/min cSf: 0.58333/0.583247
max/min amaxSf: 0.584513/0.583251
max/min FaceSonicCourant: 0.0299505/0.0149732
max/min kappa: 1/0
ExecutionTime = 0.15 s  ClockTime = 0 s

Mean and max Characteristic Courant Numbers = 0.0149753 0.0299505
Courant Number max: 1.61759e-05
deltaT = 1.54045e-08
Time = 8.6436e-08

PIMPLE: iteration 1
diagonal:  Solving for rho, Initial residual = 0, Final residual = 0, No Iterations 0
rho max/min : 1037.87 / 1033.44
DILUPBiCGStab:  Solving for Y.Liq, Initial residual = 0.198044, Final residual = 2.06301e-18, No Iterations 1
Mass fraction min/max = 1/1
DILUPBiCGStab:  Solving for h, Initial residual = 0.097427, Final residual = 2.04465e-17, No Iterations 1
max/min T: 293.096/292.904
max/min cf_own:1458.37/1457.89
max/min cf_nei:1458.37/1457.89
max/min alpha_own: 0.00197089/0
max/min alpha_nei: 4.81428e-14/-0
DILUPBiCGStab:  Solving for p, Initial residual = 2.15523e-05, Final residual = 3.80111e-24, No Iterations 1
max(mag(U)): 0.289574
max/min p: 1e+07/1e+06
diagonal:  Solving for rho, Initial residual = 0, Final residual = 0, No Iterations 0
rho max/min : 1037.87 / 1033.44
time step continuity errors : sum local = 1.14712e-16, global = 2.415e-17, cumulative = 0
max/min cSf: 0.583346/0.583245
max/min amaxSf: 0.584535/0.583251
max/min FaceSonicCourant: 0.0359387/0.0179664
max/min kappa: 1/0
PIMPLE: iteration 2
diagonal:  Solving for rho, Initial residual = 0, Final residual = 0, No Iterations 0
rho max/min : 1037.87 / 1033.44
DILUPBiCGStab:  Solving for Y.Liq, Initial residual = 0.104753, Final residual = 2.6921e-18, No Iterations 1
Mass fraction min/max = 1/1
DILUPBiCGStab:  Solving for h, Initial residual = 0.000416674, Final residual = 3.65691e-20, No Iterations 1
max/min T: 293.096/292.904
max/min cf_own:1458.37/1457.89
max/min cf_nei:1458.37/1457.89
max/min alpha_own: 0.00195731/0
max/min alpha_nei: 6.38962e-14/-0
DILUPBiCGStab:  Solving for p, Initial residual = 6.87473e-07, Final residual = 1.22637e-22, No Iterations 1
max(mag(U)): 0.289548
max/min p: 1e+07/1e+06
diagonal:  Solving for rho, Initial residual = 0, Final residual = 0, No Iterations 0
rho max/min : 1037.87 / 1033.44
time step continuity errors : sum local = 1.1334e-16, global = 2.44244e-17, cumulative = 0
max/min cSf: 0.583346/0.583245
max/min amaxSf: 0.584527/0.583251
max/min FaceSonicCourant: 0.0359387/0.0179664
max/min kappa: 1/0
PIMPLE: iteration 3
diagonal:  Solving for rho, Initial residual = 0, Final residual = 0, No Iterations 0
rho max/min : 1037.87 / 1033.44
DILUPBiCGStab:  Solving for Y.Liq, Initial residual = 0.105802, Final residual = 1.56979e-18, No Iterations 1
Mass fraction min/max = 1/1
DILUPBiCGStab:  Solving for h, Initial residual = 0.00284262, Final residual = 3.31453e-19, No Iterations 1
max/min T: 293.096/292.904
max/min cf_own:1458.37/1457.89
max/min cf_nei:1458.37/1457.89
max/min alpha_own: 0.00195853/0
max/min alpha_nei: 5.88239e-14/-0
DILUPBiCGStab:  Solving for p, Initial residual = 1.98958e-08, Final residual = 1.88947e-24, No Iterations 1
max(mag(U)): 0.289036
max/min p: 1e+07/1e+06
diagonal:  Solving for rho, Initial residual = 0, Final residual = 0, No Iterations 0
rho max/min : 1037.87 / 1033.44
time step continuity errors : sum local = 1.03186e-16, global = 1.48193e-17, cumulative = 0
max/min cSf: 0.583346/0.583245
max/min amaxSf: 0.584527/0.583251
max/min FaceSonicCourant: 0.0359387/0.0179664
max/min kappa: 1/0
ExecutionTime = 0.16 s  ClockTime = 0 s

Mean and max Characteristic Courant Numbers = 0.0179694 0.0359387
Courant Number max: 1.96217e-05
deltaT = 1.84854e-08
Time = 1.04921e-07

PIMPLE: iteration 1
diagonal:  Solving for rho, Initial residual = 0, Final residual = 0, No Iterations 0
rho max/min : 1037.87 / 1033.44
DILUPBiCGStab:  Solving for Y.Liq, Initial residual = 0.120203, Final residual = 3.66201e-18, No Iterations 1
Mass fraction min/max = 1/1
DILUPBiCGStab:  Solving for h, Initial residual = 0.0961616, Final residual = 3.5318e-20, No Iterations 1
max/min T: 293.115/292.884
max/min cf_own:1458.41/1457.84
max/min cf_nei:1458.41/1457.84
max/min alpha_own: 0.00195767/0
max/min alpha_nei: 5.56958e-14/-0
DILUPBiCGStab:  Solving for p, Initial residual = 2.58501e-05, Final residual = 4.77896e-21, No Iterations 1
max(mag(U)): 0.348787
max/min p: 1e+07/1e+06
diagonal:  Solving for rho, Initial residual = 0, Final residual = 0, No Iterations 0
rho max/min : 1037.87 / 1033.44
time step continuity errors : sum local = 8.09573e-17, global = 8.23294e-19, cumulative = 0
max/min cSf: 0.583366/0.583242
max/min amaxSf: 0.584553/0.583251
max/min FaceSonicCourant: 0.0431265/0.021559
max/min kappa: 1/0
PIMPLE: iteration 2
diagonal:  Solving for rho, Initial residual = 0, Final residual = 0, No Iterations 0
rho max/min : 1037.87 / 1033.44
DILUPBiCGStab:  Solving for Y.Liq, Initial residual = 0.103537, Final residual = 4.28382e-18, No Iterations 1
Mass fraction min/max = 1/1
DILUPBiCGStab:  Solving for h, Initial residual = 0.00046988, Final residual = 5.49587e-20, No Iterations 1
max/min T: 293.115/292.884
max/min cf_own:1458.41/1457.84
max/min cf_nei:1458.41/1457.84
max/min alpha_own: 0.00194199/0
max/min alpha_nei: 5.98331e-14/-0
DILUPBiCGStab:  Solving for p, Initial residual = 9.74083e-07, Final residual = 2.26351e-22, No Iterations 1
max(mag(U)): 0.348743
max/min p: 1e+07/1e+06
diagonal:  Solving for rho, Initial residual = 0, Final residual = 0, No Iterations 0
rho max/min : 1037.87 / 1033.44
time step continuity errors : sum local = 8.34272e-17, global = 1.15261e-17, cumulative = 0
max/min cSf: 0.583366/0.583242
max/min amaxSf: 0.584544/0.583251
max/min FaceSonicCourant: 0.0431265/0.021559
max/min kappa: 1/0
PIMPLE: iteration 3
diagonal:  Solving for rho, Initial residual = 0, Final residual = 0, No Iterations 0
rho max/min : 1037.87 / 1033.44
DILUPBiCGStab:  Solving for Y.Liq, Initial residual = 0.102671, Final residual = 4.53809e-18, No Iterations 1
Mass fraction min/max = 1/1
DILUPBiCGStab:  Solving for h, Initial residual = 0.0033198, Final residual = 6.51477e-19, No Iterations 1
max/min T: 293.115/292.885
max/min cf_own:1458.41/1457.84
max/min cf_nei:1458.41/1457.84
max/min alpha_own: 0.0019437/0
max/min alpha_nei: 6.33492e-14/-0
DILUPBiCGStab:  Solving for p, Initial residual = 3.43375e-08, Final residual = 2.55484e-24, No Iterations 1
max(mag(U)): 0.347884
max/min p: 1e+07/1e+06
diagonal:  Solving for rho, Initial residual = 0, Final residual = 0, No Iterations 0
rho max/min : 1037.87 / 1033.44
time step continuity errors : sum local = 8.04084e-17, global = -4.11647e-18, cumulative = 0
max/min cSf: 0.583365/0.583242
max/min amaxSf: 0.584545/0.583251
max/min FaceSonicCourant: 0.0431265/0.021559
max/min kappa: 1/0
ExecutionTime = 0.17 s  ClockTime = 0 s

Mean and max Characteristic Courant Numbers = 0.0215633 0.0431265
Courant Number max: 2.38521e-05
deltaT = 2.21841e-08
Time = 1.27106e-07

PIMPLE: iteration 1
diagonal:  Solving for rho, Initial residual = 0, Final residual = 0, No Iterations 0
rho max/min : 1037.87 / 1033.44
DILUPBiCGStab:  Solving for Y.Liq, Initial residual = 0.155556, Final residual = 4.59979e-18, No Iterations 1
Mass fraction min/max = 1/1
DILUPBiCGStab:  Solving for h, Initial residual = 0.0951306, Final residual = 1.06085e-17, No Iterations 1
max/min T: 293.138/292.862
max/min cf_own:1458.47/1457.78
max/min cf_nei:1458.47/1457.78
max/min alpha_own: 0.00194256/0
max/min alpha_nei: 5.96894e-14/-0
DILUPBiCGStab:  Solving for p, Initial residual = 3.10071e-05, Final residual = 3.53207e-22, No Iterations 1
max(mag(U)): 0.418579
max/min p: 1e+07/1e+06
diagonal:  Solving for rho, Initial residual = 0, Final residual = 0, No Iterations 0
rho max/min : 1037.87 / 1033.44
time step continuity errors : sum local = 1.25141e-16, global = 4.93977e-17, cumulative = 0
max/min cSf: 0.583388/0.583239
max/min amaxSf: 0.584575/0.583251
max/min FaceSonicCourant: 0.0517556/0.0258717
max/min kappa: 1/0
PIMPLE: iteration 2
diagonal:  Solving for rho, Initial residual = 0, Final residual = 0, No Iterations 0
rho max/min : 1037.87 / 1033.44
DILUPBiCGStab:  Solving for Y.Liq, Initial residual = 0.1324, Final residual = 3.70473e-18, No Iterations 1
Mass fraction min/max = 1/1
DILUPBiCGStab:  Solving for h, Initial residual = 0.000525161, Final residual = 4.413e-20, No Iterations 1
max/min T: 293.138/292.861
max/min cf_own:1458.47/1457.78
max/min cf_nei:1458.47/1457.78
max/min alpha_own: 0.0019246/0
max/min alpha_nei: 5.90109e-14/-0
DILUPBiCGStab:  Solving for p, Initial residual = 1.37601e-06, Final residual = 1.33158e-22, No Iterations 1
max(mag(U)): 0.418506
max/min p: 1e+07/1e+06
diagonal:  Solving for rho, Initial residual = 0, Final residual = 0, No Iterations 0
rho max/min : 1037.87 / 1033.44
time step continuity errors : sum local = 1.24043e-16, global = 5.81795e-17, cumulative = 0
max/min cSf: 0.583388/0.583239
max/min amaxSf: 0.584565/0.583251
max/min FaceSonicCourant: 0.0517556/0.0258717
max/min kappa: 1/0
PIMPLE: iteration 3
diagonal:  Solving for rho, Initial residual = 0, Final residual = 0, No Iterations 0
rho max/min : 1037.87 / 1033.44
DILUPBiCGStab:  Solving for Y.Liq, Initial residual = 0.111268, Final residual = 2.8236e-18, No Iterations 1
Mass fraction min/max = 1/1
DILUPBiCGStab:  Solving for h, Initial residual = 0.00387292, Final residual = 5.39173e-19, No Iterations 1
max/min T: 293.138/292.862
max/min cf_own:1458.47/1457.78
max/min cf_nei:1458.47/1457.78
max/min alpha_own: 0.001927/0
max/min alpha_nei: 5.46234e-14/-0
DILUPBiCGStab:  Solving for p, Initial residual = 5.8712e-08, Final residual = 2.08136e-24, No Iterations 1
max(mag(U)): 0.417191
max/min p: 1e+07/1e+06
diagonal:  Solving for rho, Initial residual = 0, Final residual = 0, No Iterations 0
rho max/min : 1037.87 / 1033.44
time step continuity errors : sum local = 1.20201e-16, global = 6.25704e-17, cumulative = 0
max/min cSf: 0.583388/0.583238
max/min amaxSf: 0.584565/0.583251
max/min FaceSonicCourant: 0.0517556/0.0258717
max/min kappa: 1/0
ExecutionTime = 0.18 s  ClockTime = 0 s

Mean and max Characteristic Courant Numbers = 0.0258779 0.0517556
Courant Number max: 2.90673e-05
deltaT = 2.66186e-08
Time = 1.53724e-07

PIMPLE: iteration 1
diagonal:  Solving for rho, Initial residual = 0, Final residual = 0, No Iterations 0
rho max/min : 1037.87 / 1033.44
DILUPBiCGStab:  Solving for Y.Liq, Initial residual = 0.167838, Final residual = 3.51007e-18, No Iterations 1
Mass fraction min/max = 1/1
DILUPBiCGStab:  Solving for h, Initial residual = 0.0942705, Final residual = 1.10642e-17, No Iterations 1
max/min T: 293.165/292.835
max/min cf_own:1458.54/1457.72
max/min cf_nei:1458.54/1457.72
max/min alpha_own: 0.00192549/0
max/min alpha_nei: 5.97658e-14/-0
DILUPBiCGStab:  Solving for p, Initial residual = 3.71875e-05, Final residual = 3.76828e-21, No Iterations 1
max(mag(U)): 0.500493
max/min p: 1e+07/1e+06
diagonal:  Solving for rho, Initial residual = 0, Final residual = 0, No Iterations 0
rho max/min : 1037.87 / 1033.44
time step continuity errors : sum local = 1.38588e-16, global = -2.46988e-18, cumulative = 0
max/min cSf: 0.583415/0.583233
max/min amaxSf: 0.5846/0.583251
max/min FaceSonicCourant: 0.0621012/0.0310419
max/min kappa: 1/0
PIMPLE: iteration 2
diagonal:  Solving for rho, Initial residual = 0, Final residual = 0, No Iterations 0
rho max/min : 1037.87 / 1033.44
DILUPBiCGStab:  Solving for Y.Liq, Initial residual = 0.113323, Final residual = 2.6778e-18, No Iterations 1
Mass fraction min/max = 1/1
DILUPBiCGStab:  Solving for h, Initial residual = 0.000578666, Final residual = 1.01823e-21, No Iterations 1
max/min T: 293.165/292.835
max/min cf_own:1458.54/1457.72
max/min cf_nei:1458.54/1457.72
max/min alpha_own: 0.00190513/0
max/min alpha_nei: 6.73042e-14/-0
DILUPBiCGStab:  Solving for p, Initial residual = 1.93581e-06, Final residual = 3.26091e-22, No Iterations 1
max(mag(U)): 0.500372
max/min p: 1e+07/1e+06
diagonal:  Solving for rho, Initial residual = 0, Final residual = 0, No Iterations 0
rho max/min : 1037.87 / 1033.44
time step continuity errors : sum local = 1.41058e-16, global = -6.03749e-18, cumulative = 0
max/min cSf: 0.583415/0.583233
max/min amaxSf: 0.584589/0.583251
max/min FaceSonicCourant: 0.0621012/0.0310419
max/min kappa: 1/0
PIMPLE: iteration 3
diagonal:  Solving for rho, Initial residual = 0, Final residual = 0, No Iterations 0
rho max/min : 1037.87 / 1033.44
DILUPBiCGStab:  Solving for Y.Liq, Initial residual = 0.137316, Final residual = 4.00507e-18, No Iterations 1
Mass fraction min/max = 1/1
DILUPBiCGStab:  Solving for h, Initial residual = 0.00450668, Final residual = 8.86852e-21, No Iterations 1
max/min T: 293.164/292.836
max/min cf_own:1458.53/1457.72
max/min cf_nei:1458.53/1457.72
max/min alpha_own: 0.00190848/0
max/min alpha_nei: 5.78098e-14/-0
DILUPBiCGStab:  Solving for p, Initial residual = 9.93467e-08, Final residual = 1.63228e-23, No Iterations 1
max(mag(U)): 0.498499
max/min p: 1e+07/1e+06
diagonal:  Solving for rho, Initial residual = 0, Final residual = 0, No Iterations 0
rho max/min : 1037.87 / 1033.44
time step continuity errors : sum local = 1.38588e-16, global = -4.66533e-18, cumulative = 0
max/min cSf: 0.583414/0.583232
max/min amaxSf: 0.58459/0.583251
max/min FaceSonicCourant: 0.0621012/0.0310419
max/min kappa: 1/0
ExecutionTime = 0.19 s  ClockTime = 0 s

Mean and max Characteristic Courant Numbers = 0.0310507 0.0621012
Courant Number max: 3.55177e-05
deltaT = 3.19406e-08
Time = 1.85665e-07

PIMPLE: iteration 1
diagonal:  Solving for rho, Initial residual = 0, Final residual = 0, No Iterations 0
rho max/min : 1037.87 / 1033.44
DILUPBiCGStab:  Solving for Y.Liq, Initial residual = 0.116401, Final residual = 5.54979e-18, No Iterations 1
Mass fraction min/max = 1/1
DILUPBiCGStab:  Solving for h, Initial residual = 0.0935704, Final residual = 1.23562e-18, No Iterations 1
max/min T: 293.196/292.804
max/min cf_own:1458.61/1457.64
max/min cf_nei:1458.61/1457.64
max/min alpha_own: 0.00190651/0
max/min alpha_nei: 6.10519e-14/-0
DILUPBiCGStab:  Solving for p, Initial residual = 4.46058e-05, Final residual = 9.57494e-21, No Iterations 1
max(mag(U)): 0.596153
max/min p: 1e+07/1e+06
diagonal:  Solving for rho, Initial residual = 0, Final residual = 0, No Iterations 0
rho max/min : 1037.87 / 1033.44
time step continuity errors : sum local = 1.14438e-16, global = -2.82664e-17, cumulative = 0
max/min cSf: 0.583446/0.583226
max/min amaxSf: 0.58463/0.583251
max/min FaceSonicCourant: 0.0745175/0.0372463
max/min kappa: 1/0
PIMPLE: iteration 2
diagonal:  Solving for rho, Initial residual = 0, Final residual = 0, No Iterations 0
rho max/min : 1037.87 / 1033.44
DILUPBiCGStab:  Solving for Y.Liq, Initial residual = 0.100952, Final residual = 4.25586e-18, No Iterations 1
Mass fraction min/max = 1/1
DILUPBiCGStab:  Solving for h, Initial residual = 0.000628227, Final residual = 1.64973e-19, No Iterations 1
max/min T: 293.196/292.804
max/min cf_own:1458.61/1457.64
max/min cf_nei:1458.61/1457.64
max/min alpha_own: 0.00188373/0
max/min alpha_nei: 5.97948e-14/-0
DILUPBiCGStab:  Solving for p, Initial residual = 2.71148e-06, Final residual = 7.09125e-23, No Iterations 1
max(mag(U)): 0.595952
max/min p: 1e+07/1e+06
diagonal:  Solving for rho, Initial residual = 0, Final residual = 0, No Iterations 0
rho max/min : 1037.87 / 1033.44
time step continuity errors : sum local = 1.15261e-16, global = -2.36011e-17, cumulative = 0
max/min cSf: 0.583446/0.583225
max/min amaxSf: 0.584617/0.583251
max/min FaceSonicCourant: 0.0745175/0.0372463
max/min kappa: 1/0
PIMPLE: iteration 3
diagonal:  Solving for rho, Initial residual = 0, Final residual = 0, No Iterations 0
rho max/min : 1037.87 / 1033.44
DILUPBiCGStab:  Solving for Y.Liq, Initial residual = 0.109948, Final residual = 5.54847e-18, No Iterations 1
Mass fraction min/max = 1/1
DILUPBiCGStab:  Solving for h, Initial residual = 0.00522716, Final residual = 1.40949e-19, No Iterations 1
max/min T: 293.195/292.805
max/min cf_own:1458.61/1457.64
max/min cf_nei:1458.61/1457.64
max/min alpha_own: 0.00188836/0
max/min alpha_nei: 5.84975e-14/-0
DILUPBiCGStab:  Solving for p, Initial residual = 1.66317e-07, Final residual = 1.22939e-23, No Iterations 1
max(mag(U)): 0.593464
max/min p: 1e+07/1e+06
diagonal:  Solving for rho, Initial residual = 0, Final residual = 0, No Iterations 0
rho max/min : 1037.87 / 1033.44
time step continuity errors : sum local = 1.07028e-16, global = -2.96386e-17, cumulative = 0
max/min cSf: 0.583444/0.583224
max/min amaxSf: 0.584618/0.583251
max/min FaceSonicCourant: 0.0745175/0.0372464
max/min kappa: 1/0
ExecutionTime = 0.2 s  ClockTime = 0 s

Mean and max Characteristic Courant Numbers = 0.0372589 0.0745175
Courant Number max: 4.35446e-05
deltaT = 3.83312e-08
Time = 2.23996e-07

PIMPLE: iteration 1
diagonal:  Solving for rho, Initial residual = 0, Final residual = 0, No Iterations 0
rho max/min : 1037.87 / 1033.44
DILUPBiCGStab:  Solving for Y.Liq, Initial residual = 0.129531, Final residual = 3.49382e-18, No Iterations 1
Mass fraction min/max = 1/1
DILUPBiCGStab:  Solving for h, Initial residual = 0.0930171, Final residual = 6.55689e-18, No Iterations 1
max/min T: 293.231/292.768
max/min cf_own:1458.7/1457.55
max/min cf_nei:1458.7/1457.55
max/min alpha_own: 0.00188582/0
max/min alpha_nei: 5.86148e-14/-0
DILUPBiCGStab:  Solving for p, Initial residual = 5.35214e-05, Final residual = 1.08135e-20, No Iterations 1
max(mag(U)): 0.707173
max/min p: 1e+07/1e+06
diagonal:  Solving for rho, Initial residual = 0, Final residual = 0, No Iterations 0
rho max/min : 1037.87 / 1033.44
time step continuity errors : sum local = 1.4243e-16, global = 1.37216e-18, cumulative = 0
max/min cSf: 0.583481/0.583215
max/min amaxSf: 0.584664/0.583251
max/min FaceSonicCourant: 0.0894267/0.0446957
max/min kappa: 1/0
PIMPLE: iteration 2
diagonal:  Solving for rho, Initial residual = 0, Final residual = 0, No Iterations 0
rho max/min : 1037.87 / 1033.44
DILUPBiCGStab:  Solving for Y.Liq, Initial residual = 0.121693, Final residual = 4.63752e-18, No Iterations 1
Mass fraction min/max = 1/1
DILUPBiCGStab:  Solving for h, Initial residual = 0.000668275, Final residual = 3.60811e-20, No Iterations 1
max/min T: 293.232/292.768
max/min cf_own:1458.7/1457.55
max/min cf_nei:1458.7/1457.55
max/min alpha_own: 0.00186073/0
max/min alpha_nei: 6.05922e-14/-0
DILUPBiCGStab:  Solving for p, Initial residual = 3.7791e-06, Final residual = 9.21309e-22, No Iterations 1
max(mag(U)): 0.706839
max/min p: 1e+07/1e+06
diagonal:  Solving for rho, Initial residual = 0, Final residual = 0, No Iterations 0
rho max/min : 1037.87 / 1033.44
time step continuity errors : sum local = 1.2075e-16, global = 5.48863e-18, cumulative = 0
max/min cSf: 0.583481/0.583214
max/min amaxSf: 0.58465/0.583251
max/min FaceSonicCourant: 0.0894267/0.0446956
max/min kappa: 1/0
PIMPLE: iteration 3
diagonal:  Solving for rho, Initial residual = 0, Final residual = 0, No Iterations 0
rho max/min : 1037.87 / 1033.44
DILUPBiCGStab:  Solving for Y.Liq, Initial residual = 0.106754, Final residual = 4.44452e-18, No Iterations 1
Mass fraction min/max = 1/1
DILUPBiCGStab:  Solving for h, Initial residual = 0.00603693, Final residual = 5.30538e-19, No Iterations 1
max/min T: 293.23/292.77
max/min cf_own:1458.7/1457.55
max/min cf_nei:1458.7/1457.55
max/min alpha_own: 0.00186709/0
max/min alpha_nei: 5.84227e-14/-0
DILUPBiCGStab:  Solving for p, Initial residual = 2.75164e-07, Final residual = 3.11063e-23, No Iterations 1
max(mag(U)): 0.703795
max/min p: 1e+07/1e+06
diagonal:  Solving for rho, Initial residual = 0, Final residual = 0, No Iterations 0
rho max/min : 1037.87 / 1033.44
time step continuity errors : sum local = 1.25964e-16, global = 1.0154e-17, cumulative = 0
max/min cSf: 0.58348/0.583213
max/min amaxSf: 0.584652/0.583251
max/min FaceSonicCourant: 0.0894267/0.0446958
max/min kappa: 1/0
ExecutionTime = 0.21 s  ClockTime = 0 s

Mean and max Characteristic Courant Numbers = 0.0447136 0.0894267
Courant Number max: 5.35955e-05
deltaT = 4.60009e-08
Time = 2.69997e-07

PIMPLE: iteration 1
diagonal:  Solving for rho, Initial residual = 0, Final residual = 0, No Iterations 0
rho max/min : 1037.87 / 1033.44
DILUPBiCGStab:  Solving for Y.Liq, Initial residual = 0.128638, Final residual = 5.03857e-18, No Iterations 1
Mass fraction min/max = 1/1
DILUPBiCGStab:  Solving for h, Initial residual = 0.0925898, Final residual = 6.81061e-18, No Iterations 1
max/min T: 293.272/292.727
max/min cf_own:1458.8/1457.45
max/min cf_nei:1458.8/1457.45
max/min alpha_own: 0.00186389/0
max/min alpha_nei: 6.29871e-14/-0
DILUPBiCGStab:  Solving for p, Initial residual = 6.42436e-05, Final residual = 9.46646e-21, No Iterations 1
max(mag(U)): 0.834995
max/min p: 1e+07/1e+06
diagonal:  Solving for rho, Initial residual = 0, Final residual = 0, No Iterations 0
rho max/min : 1037.87 / 1033.44
time step continuity errors : sum local = 1.19103e-16, global = 2.74431e-18, cumulative = 0
max/min cSf: 0.583522/0.583199
max/min amaxSf: 0.584704/0.583251
max/min FaceSonicCourant: 0.10732/0.0536352
max/min kappa: 1/0
PIMPLE: iteration 2
diagonal:  Solving for rho, Initial residual = 0, Final residual = 0, No Iterations 0
rho max/min : 1037.87 / 1033.44
DILUPBiCGStab:  Solving for Y.Liq, Initial residual = 0.138614, Final residual = 5.56486e-18, No Iterations 1
Mass fraction min/max = 1/1
DILUPBiCGStab:  Solving for h, Initial residual = 0.000690824, Final residual = 6.34236e-20, No Iterations 1
max/min T: 293.273/292.727
max/min cf_own:1458.8/1457.45
max/min cf_nei:1458.8/1457.45
max/min alpha_own: 0.00183678/0
max/min alpha_nei: 7.37065e-14/-0
DILUPBiCGStab:  Solving for p, Initial residual = 5.2355e-06, Final residual = 5.64764e-22, No Iterations 1
max(mag(U)): 0.834441
max/min p: 1e+07/1e+06
diagonal:  Solving for rho, Initial residual = 0, Final residual = 0, No Iterations 0
rho max/min : 1037.87 / 1033.44
time step continuity errors : sum local = 1.27336e-16, global = -6.58635e-18, cumulative = 0
max/min cSf: 0.583522/0.583199
max/min amaxSf: 0.584688/0.583251
max/min FaceSonicCourant: 0.10732/0.0536351
max/min kappa: 1/0
PIMPLE: iteration 3
diagonal:  Solving for rho, Initial residual = 0, Final residual = 0, No Iterations 0
rho max/min : 1037.87 / 1033.44
DILUPBiCGStab:  Solving for Y.Liq, Initial residual = 0.163901, Final residual = 6.06557e-18, No Iterations 1
Mass fraction min/max = 1/1
DILUPBiCGStab:  Solving for h, Initial residual = 0.00693203, Final residual = 8.46221e-19, No Iterations 1
max/min T: 293.27/292.73
max/min cf_own:1458.8/1457.45
max/min cf_nei:1458.8/1457.45
max/min alpha_own: 0.00184543/0
max/min alpha_nei: 6.61847e-14/-0
DILUPBiCGStab:  Solving for p, Initial residual = 4.48874e-07, Final residual = 2.99293e-23, No Iterations 1
max(mag(U)): 0.831141
max/min p: 1e+07/1e+06
diagonal:  Solving for rho, Initial residual = 0, Final residual = 0, No Iterations 0
rho max/min : 1037.87 / 1033.44
time step continuity errors : sum local = 1.21848e-16, global = -1.26238e-17, cumulative = 0
max/min cSf: 0.58352/0.583197
max/min amaxSf: 0.584691/0.583251
max/min FaceSonicCourant: 0.10732/0.0536354
max/min kappa: 1/0
ExecutionTime = 0.22 s  ClockTime = 0 s

Mean and max Characteristic Courant Numbers = 0.0536604 0.10732
Courant Number max: 6.62524e-05
deltaT = 5.51909e-08
Time = 3.25188e-07

PIMPLE: iteration 1
diagonal:  Solving for rho, Initial residual = 0, Final residual = 0, No Iterations 0
rho max/min : 1037.87 / 1033.44
DILUPBiCGStab:  Solving for Y.Liq, Initial residual = 0.138178, Final residual = 2.38636e-18, No Iterations 1
Mass fraction min/max = 1/1
DILUPBiCGStab:  Solving for h, Initial residual = 0.0922633, Final residual = 1.7664e-17, No Iterations 1
max/min T: 293.319/292.681
max/min cf_own:1458.92/1457.33
max/min cf_nei:1458.92/1457.33
max/min alpha_own: 0.00184153/0
max/min alpha_nei: 7.02853e-14/-0
DILUPBiCGStab:  Solving for p, Initial residual = 7.71389e-05, Final residual = 7.0438e-21, No Iterations 1
max(mag(U)): 0.980636
max/min p: 1e+07/1e+06
diagonal:  Solving for rho, Initial residual = 0, Final residual = 0, No Iterations 0
rho max/min : 1037.87 / 1033.44
time step continuity errors : sum local = 1.48193e-16, global = 4.82999e-17, cumulative = 0
max/min cSf: 0.583568/0.583178
max/min amaxSf: 0.584749/0.583251
max/min FaceSonicCourant: 0.128761/0.0643453
max/min kappa: 1/0
PIMPLE: iteration 2
diagonal:  Solving for rho, Initial residual = 0, Final residual = 0, No Iterations 0
rho max/min : 1037.87 / 1033.44
DILUPBiCGStab:  Solving for Y.Liq, Initial residual = 0.126164, Final residual = 4.56207e-18, No Iterations 1
Mass fraction min/max = 1/1
DILUPBiCGStab:  Solving for h, Initial residual = 0.000686141, Final residual = 1.05821e-19, No Iterations 1
max/min T: 293.319/292.681
max/min cf_own:1458.92/1457.33
max/min cf_nei:1458.92/1457.33
max/min alpha_own: 0.00181294/0
max/min alpha_nei: 6.28984e-14/-0
DILUPBiCGStab:  Solving for p, Initial residual = 7.19939e-06, Final residual = 8.18799e-22, No Iterations 1
max(mag(U)): 0.979722
max/min p: 1e+07/1e+06
diagonal:  Solving for rho, Initial residual = 0, Final residual = 0, No Iterations 0
rho max/min : 1037.87 / 1033.44
time step continuity errors : sum local = 1.32002e-16, global = 3.54017e-17, cumulative = 0
max/min cSf: 0.583568/0.583178
max/min amaxSf: 0.584733/0.583251
max/min FaceSonicCourant: 0.128761/0.0643452
max/min kappa: 1/0
PIMPLE: iteration 3
diagonal:  Solving for rho, Initial residual = 0, Final residual = 0, No Iterations 0
rho max/min : 1037.87 / 1033.44
DILUPBiCGStab:  Solving for Y.Liq, Initial residual = 0.130435, Final residual = 3.93973e-18, No Iterations 1
Mass fraction min/max = 1/1
DILUPBiCGStab:  Solving for h, Initial residual = 0.00789913, Final residual = 5.62872e-19, No Iterations 1
max/min T: 293.316/292.684
max/min cf_own:1458.91/1457.34
max/min cf_nei:1458.91/1457.34
max/min alpha_own: 0.00182456/0
max/min alpha_nei: 5.67398e-14/-0
DILUPBiCGStab:  Solving for p, Initial residual = 7.19471e-07, Final residual = 6.17973e-23, No Iterations 1
max(mag(U)): 0.976911
max/min p: 1e+07/1e+06
diagonal:  Solving for rho, Initial residual = 0, Final residual = 0, No Iterations 0
rho max/min : 1037.87 / 1033.44
time step continuity errors : sum local = 1.36941e-16, global = 3.64994e-17, cumulative = 0
max/min cSf: 0.583565/0.583174
max/min amaxSf: 0.584736/0.583251
max/min FaceSonicCourant: 0.128761/0.0643456
max/min kappa: 1/0
ExecutionTime = 0.23 s  ClockTime = 0 s

Mean and max Characteristic Courant Numbers = 0.0643806 0.128761
Courant Number max: 8.23219e-05
deltaT = 6.62291e-08
Time = 3.91417e-07

PIMPLE: iteration 1
diagonal:  Solving for rho, Initial residual = 0, Final residual = 0, No Iterations 0
rho max/min : 1037.87 / 1033.44
DILUPBiCGStab:  Solving for Y.Liq, Initial residual = 0.104299, Final residual = 4.55125e-18, No Iterations 1
Mass fraction min/max = 1/1
DILUPBiCGStab:  Solving for h, Initial residual = 0.0920842, Final residual = 1.14291e-17, No Iterations 1
max/min T: 293.371/292.629
max/min cf_own:1459.05/1457.2
max/min cf_nei:1459.05/1457.2
max/min alpha_own: 0.00182002/0
max/min alpha_nei: 5.82632e-14/-0
DILUPBiCGStab:  Solving for p, Initial residual = 9.27306e-05, Final residual = 1.71522e-20, No Iterations 1
max(mag(U)): 1.14453
max/min p: 1e+07/1e+06
diagonal:  Solving for rho, Initial residual = 0, Final residual = 0, No Iterations 0
rho max/min : 1037.87 / 1033.44
time step continuity errors : sum local = 1.34746e-16, global = 3.86948e-17, cumulative = 0
max/min cSf: 0.58362/0.583148
max/min amaxSf: 0.5848/0.583251
max/min FaceSonicCourant: 0.154513/0.0772075
max/min kappa: 1/0
PIMPLE: iteration 2
diagonal:  Solving for rho, Initial residual = 0, Final residual = 0, No Iterations 0
rho max/min : 1037.87 / 1033.44
DILUPBiCGStab:  Solving for Y.Liq, Initial residual = 0.112521, Final residual = 5.61217e-18, No Iterations 1
Mass fraction min/max = 1/1
DILUPBiCGStab:  Solving for h, Initial residual = 0.000826369, Final residual = 4.7551e-20, No Iterations 1
max/min T: 293.371/292.629
max/min cf_own:1459.05/1457.2
max/min cf_nei:1459.05/1457.2
max/min alpha_own: 0.00179074/0
max/min alpha_nei: 7.04482e-14/-0
DILUPBiCGStab:  Solving for p, Initial residual = 9.82685e-06, Final residual = 1.64978e-21, No Iterations 1
max(mag(U)): 1.14302
max/min p: 1e+07/1e+06
diagonal:  Solving for rho, Initial residual = 0, Final residual = 0, No Iterations 0
rho max/min : 1037.87 / 1033.44
time step continuity errors : sum local = 1.2075e-16, global = 3.34806e-17, cumulative = 0
max/min cSf: 0.58362/0.583148
max/min amaxSf: 0.584783/0.583251
max/min FaceSonicCourant: 0.154513/0.0772074
max/min kappa: 1/0
PIMPLE: iteration 3
diagonal:  Solving for rho, Initial residual = 0, Final residual = 0, No Iterations 0
rho max/min : 1037.87 / 1033.44
DILUPBiCGStab:  Solving for Y.Liq, Initial residual = 0.121757, Final residual = 6.45695e-18, No Iterations 1
Mass fraction min/max = 1/1
DILUPBiCGStab:  Solving for h, Initial residual = 0.00892675, Final residual = 1.23973e-18, No Iterations 1
max/min T: 293.366/292.634
max/min cf_own:1459.04/1457.22
max/min cf_nei:1459.04/1457.22
max/min alpha_own: 0.00180613/0
max/min alpha_nei: 6.02153e-14/-0
DILUPBiCGStab:  Solving for p, Initial residual = 1.13049e-06, Final residual = 1.71316e-22, No Iterations 1
max(mag(U)): 1.14215
max/min p: 1e+07/1e+06
diagonal:  Solving for rho, Initial residual = 0, Final residual = 0, No Iterations 0
rho max/min : 1037.87 / 1033.44
time step continuity errors : sum local = 1.20201e-16, global = 3.73227e-17, cumulative = 0
max/min cSf: 0.583615/0.583144
max/min amaxSf: 0.584788/0.583251
max/min FaceSonicCourant: 0.154513/0.0772081
max/min kappa: 1/0
ExecutionTime = 0.24 s  ClockTime = 0 s

Mean and max Characteristic Courant Numbers = 0.0772568 0.154513
Courant Number max: 0.000102841
deltaT = 7.94961e-08
Time = 4.70913e-07

PIMPLE: iteration 1
diagonal:  Solving for rho, Initial residual = 0, Final residual = 0, No Iterations 0
rho max/min : 1037.87 / 1033.44
DILUPBiCGStab:  Solving for Y.Liq, Initial residual = 0.11178, Final residual = 5.12445e-18, No Iterations 1
Mass fraction min/max = 1/1
DILUPBiCGStab:  Solving for h, Initial residual = 0.0920728, Final residual = 3.06576e-19, No Iterations 1
max/min T: 293.428/292.573
max/min cf_own:1459.19/1457.06
max/min cf_nei:1459.19/1457.06
max/min alpha_own: 0.0018012/0
max/min alpha_nei: 6.05611e-14/-0
DILUPBiCGStab:  Solving for p, Initial residual = 0.000111667, Final residual = 3.2392e-21, No Iterations 1
max(mag(U)): 1.32605
max/min p: 1e+07/1e+06
diagonal:  Solving for rho, Initial residual = 0, Final residual = 0, No Iterations 0
rho max/min : 1037.87 / 1033.44
time step continuity errors : sum local = 1.58621e-16, global = 3.78715e-17, cumulative = 0
max/min cSf: 0.583677/0.583107
max/min amaxSf: 0.584858/0.583251
max/min FaceSonicCourant: 0.185465/0.0926646
max/min kappa: 1/0
PIMPLE: iteration 2
diagonal:  Solving for rho, Initial residual = 0, Final residual = 0, No Iterations 0
rho max/min : 1037.87 / 1033.44
DILUPBiCGStab:  Solving for Y.Liq, Initial residual = 0.140966, Final residual = 5.49805e-18, No Iterations 1
Mass fraction min/max = 1/1
DILUPBiCGStab:  Solving for h, Initial residual = 0.00105646, Final residual = 5.248e-20, No Iterations 1
max/min T: 293.428/292.572
max/min cf_own:1459.19/1457.06
max/min cf_nei:1459.19/1457.06
max/min alpha_own: 0.0017722/0
max/min alpha_nei: 5.79867e-14/-0
DILUPBiCGStab:  Solving for p, Initial residual = 1.33053e-05, Final residual = 2.33064e-23, No Iterations 1
max(mag(U)): 1.3236
max/min p: 1e+07/1e+06
diagonal:  Solving for rho, Initial residual = 0, Final residual = 0, No Iterations 0
rho max/min : 1037.87 / 1033.44
time step continuity errors : sum local = 1.46821e-16, global = 2.66198e-17, cumulative = 0
max/min cSf: 0.583676/0.583107
max/min amaxSf: 0.584841/0.583251
max/min FaceSonicCourant: 0.185465/0.0926646
max/min kappa: 1/0
PIMPLE: iteration 3
diagonal:  Solving for rho, Initial residual = 0, Final residual = 0, No Iterations 0
rho max/min : 1037.87 / 1033.44
DILUPBiCGStab:  Solving for Y.Liq, Initial residual = 0.110688, Final residual = 4.54749e-18, No Iterations 1
Mass fraction min/max = 1/1
DILUPBiCGStab:  Solving for h, Initial residual = 0.00998976, Final residual = 8.06775e-19, No Iterations 1
max/min T: 293.422/292.579
max/min cf_own:1459.18/1457.08
max/min cf_nei:1459.18/1457.08
[...]
diagonal:  Solving for rho, Initial residual = 0, Final residual = 0, No Iterations 0
rho max/min : 1037.87 / 1033.44
time step continuity errors : sum local = 1.63287e-16, global = 1.7838e-17, cumulative = 0
max/min cSf: 0.58429/0.582215
max/min amaxSf: 0.585506/0.583251
max/min FaceSonicCourant: 0.466688/0.232929
max/min kappa: 1/0
ExecutionTime = 4.99 s  ClockTime = 5 s

Mean and max Characteristic Courant Numbers = 0.233482 0.466688
Courant Number max: 0.000486807
deltaT = 2.00037e-07
Time = 9.89998e-05

PIMPLE: iteration 1
diagonal:  Solving for rho, Initial residual = 0, Final residual = 0, No Iterations 0
rho max/min : 1037.87 / 1033.44
DILUPBiCGStab:  Solving for Y.Liq, Initial residual = 0.0139001, Final residual = 6.5779e-19, No Iterations 1
Mass fraction min/max = 1/1
DILUPBiCGStab:  Solving for h, Initial residual = 0.00101418, Final residual = 2.55661e-19, No Iterations 1
max/min T: 294.045/291.959
max/min cf_own:1460.72/1455.53
max/min cf_nei:1460.72/1455.53
max/min alpha_own: 0.00208993/0
max/min alpha_nei: 1.51678e-13/-0
DILUPBiCGStab:  Solving for p, Initial residual = 0.000398295, Final residual = 2.14594e-20, No Iterations 1
max(mag(U)): 3.04197
max/min p: 1e+07/1e+06
diagonal:  Solving for rho, Initial residual = 0, Final residual = 0, No Iterations 0
rho max/min : 1037.87 / 1033.44
time step continuity errors : sum local = 1.79478e-16, global = 2.74431e-17, cumulative = 0
max/min cSf: 0.58429/0.582215
max/min amaxSf: 0.585506/0.583251
max/min FaceSonicCourant: 0.466688/0.232929
max/min kappa: 1/0
PIMPLE: iteration 2
diagonal:  Solving for rho, Initial residual = 0, Final residual = 0, No Iterations 0
rho max/min : 1037.87 / 1033.44
DILUPBiCGStab:  Solving for Y.Liq, Initial residual = 0.0167113, Final residual = 8.96432e-19, No Iterations 1
Mass fraction min/max = 1/1
DILUPBiCGStab:  Solving for h, Initial residual = 8.49588e-07, Final residual = 9.22995e-23, No Iterations 1
max/min T: 294.045/291.959
max/min cf_own:1460.72/1455.53
max/min cf_nei:1460.72/1455.53
max/min alpha_own: 0.00208993/0
max/min alpha_nei: 1.50162e-13/-0
DILUPBiCGStab:  Solving for p, Initial residual = 9.98645e-06, Final residual = 8.64532e-22, No Iterations 1
max(mag(U)): 3.04197
max/min p: 1e+07/1e+06
diagonal:  Solving for rho, Initial residual = 0, Final residual = 0, No Iterations 0
rho max/min : 1037.87 / 1033.44
time step continuity errors : sum local = 1.67403e-16, global = 1.86613e-17, cumulative = 0
max/min cSf: 0.58429/0.582215
max/min amaxSf: 0.585506/0.583251
max/min FaceSonicCourant: 0.466688/0.232929
max/min kappa: 1/0
PIMPLE: iteration 3
diagonal:  Solving for rho, Initial residual = 0, Final residual = 0, No Iterations 0
rho max/min : 1037.87 / 1033.44
DILUPBiCGStab:  Solving for Y.Liq, Initial residual = 0.0170202, Final residual = 7.69707e-19, No Iterations 1
Mass fraction min/max = 1/1
DILUPBiCGStab:  Solving for h, Initial residual = 2.52705e-05, Final residual = 1.96017e-21, No Iterations 1
max/min T: 294.045/291.959
max/min cf_own:1460.72/1455.53
max/min cf_nei:1460.72/1455.53
max/min alpha_own: 0.00208993/0
max/min alpha_nei: 1.50354e-13/-0
DILUPBiCGStab:  Solving for p, Initial residual = 9.55415e-08, Final residual = 6.67442e-24, No Iterations 1
max(mag(U)): 3.04197
max/min p: 1e+07/1e+06
diagonal:  Solving for rho, Initial residual = 0, Final residual = 0, No Iterations 0
rho max/min : 1037.87 / 1033.44
time step continuity errors : sum local = 1.56151e-16, global = 2.00335e-17, cumulative = 0
max/min cSf: 0.58429/0.582215
max/min amaxSf: 0.585506/0.583251
max/min FaceSonicCourant: 0.466688/0.232929
max/min kappa: 1/0
ExecutionTime = 5 s  ClockTime = 5 s

Mean and max Characteristic Courant Numbers = 0.233482 0.466688
Courant Number max: 0.000486807
deltaT = 2.00037e-07
Time = 9.91999e-05

PIMPLE: iteration 1
diagonal:  Solving for rho, Initial residual = 0, Final residual = 0, No Iterations 0
rho max/min : 1037.87 / 1033.44
DILUPBiCGStab:  Solving for Y.Liq, Initial residual = 0.0144928, Final residual = 7.11192e-19, No Iterations 1
Mass fraction min/max = 1/1
DILUPBiCGStab:  Solving for h, Initial residual = 0.00101213, Final residual = 1.3844e-19, No Iterations 1
max/min T: 294.045/291.959
max/min cf_own:1460.72/1455.53
max/min cf_nei:1460.72/1455.53
max/min alpha_own: 0.00208993/0
max/min alpha_nei: 1.55316e-13/-0
DILUPBiCGStab:  Solving for p, Initial residual = 0.000398612, Final residual = 8.02336e-20, No Iterations 1
max(mag(U)): 3.04197
max/min p: 1e+07/1e+06
diagonal:  Solving for rho, Initial residual = 0, Final residual = 0, No Iterations 0
rho max/min : 1037.87 / 1033.44
time step continuity errors : sum local = 1.78655e-16, global = -4.66533e-18, cumulative = 0
max/min cSf: 0.58429/0.582215
max/min amaxSf: 0.585506/0.583251
max/min FaceSonicCourant: 0.466688/0.232929
max/min kappa: 1/0
PIMPLE: iteration 2
diagonal:  Solving for rho, Initial residual = 0, Final residual = 0, No Iterations 0
rho max/min : 1037.87 / 1033.44
DILUPBiCGStab:  Solving for Y.Liq, Initial residual = 0.01748, Final residual = 9.00062e-19, No Iterations 1
Mass fraction min/max = 1/1
DILUPBiCGStab:  Solving for h, Initial residual = 8.46077e-07, Final residual = 9.95066e-23, No Iterations 1
max/min T: 294.045/291.959
max/min cf_own:1460.72/1455.53
max/min cf_nei:1460.72/1455.53
max/min alpha_own: 0.00208993/0
max/min alpha_nei: 1.55669e-13/-0
DILUPBiCGStab:  Solving for p, Initial residual = 1.00196e-05, Final residual = 1.16118e-21, No Iterations 1
max(mag(U)): 3.04197
max/min p: 1e+07/1e+06
diagonal:  Solving for rho, Initial residual = 0, Final residual = 0, No Iterations 0
rho max/min : 1037.87 / 1033.44
time step continuity errors : sum local = 1.67403e-16, global = -9.33067e-18, cumulative = 0
max/min cSf: 0.58429/0.582215
max/min amaxSf: 0.585506/0.583251
max/min FaceSonicCourant: 0.466688/0.232929
max/min kappa: 1/0
PIMPLE: iteration 3
diagonal:  Solving for rho, Initial residual = 0, Final residual = 0, No Iterations 0
rho max/min : 1037.87 / 1033.44
DILUPBiCGStab:  Solving for Y.Liq, Initial residual = 0.0155342, Final residual = 8.1888e-19, No Iterations 1
Mass fraction min/max = 1/1
DILUPBiCGStab:  Solving for h, Initial residual = 2.52731e-05, Final residual = 4.51889e-21, No Iterations 1
max/min T: 294.045/291.959
max/min cf_own:1460.72/1455.53
max/min cf_nei:1460.72/1455.53
max/min alpha_own: 0.00208993/0
max/min alpha_nei: 1.50758e-13/-0
DILUPBiCGStab:  Solving for p, Initial residual = 1.03211e-07, Final residual = 3.26178e-23, No Iterations 1
max(mag(U)): 3.04197
max/min p: 1e+07/1e+06
diagonal:  Solving for rho, Initial residual = 0, Final residual = 0, No Iterations 0
rho max/min : 1037.87 / 1033.44
time step continuity errors : sum local = 1.62738e-16, global = -8.50737e-18, cumulative = 0
max/min cSf: 0.58429/0.582215
max/min amaxSf: 0.585506/0.583251
max/min FaceSonicCourant: 0.466688/0.232929
max/min kappa: 1/0
ExecutionTime = 5.01 s  ClockTime = 5 s

Mean and max Characteristic Courant Numbers = 0.233483 0.466688
Courant Number max: 0.000486807
deltaT = 2.00037e-07
Time = 9.93999e-05

PIMPLE: iteration 1
diagonal:  Solving for rho, Initial residual = 0, Final residual = 0, No Iterations 0
rho max/min : 1037.87 / 1033.44
DILUPBiCGStab:  Solving for Y.Liq, Initial residual = 0.0140754, Final residual = 7.11056e-19, No Iterations 1
Mass fraction min/max = 1/1
DILUPBiCGStab:  Solving for h, Initial residual = 0.00101009, Final residual = 7.93817e-20, No Iterations 1
max/min T: 294.045/291.959
max/min cf_own:1460.72/1455.53
max/min cf_nei:1460.72/1455.53
max/min alpha_own: 0.00208993/0
max/min alpha_nei: 1.6348e-13/-0
DILUPBiCGStab:  Solving for p, Initial residual = 0.00039893, Final residual = 8.54571e-20, No Iterations 1
max(mag(U)): 3.04197
max/min p: 1e+07/1e+06
diagonal:  Solving for rho, Initial residual = 0, Final residual = 0, No Iterations 0
rho max/min : 1037.87 / 1033.44
time step continuity errors : sum local = 1.78655e-16, global = 1.0154e-17, cumulative = 0
max/min cSf: 0.58429/0.582215
max/min amaxSf: 0.585506/0.583251
max/min FaceSonicCourant: 0.466688/0.232929
max/min kappa: 1/0
PIMPLE: iteration 2
diagonal:  Solving for rho, Initial residual = 0, Final residual = 0, No Iterations 0
rho max/min : 1037.87 / 1033.44
DILUPBiCGStab:  Solving for Y.Liq, Initial residual = 0.0164237, Final residual = 9.25807e-19, No Iterations 1
Mass fraction min/max = 1/1
DILUPBiCGStab:  Solving for h, Initial residual = 8.41233e-07, Final residual = 1.6821e-22, No Iterations 1
max/min T: 294.045/291.959
max/min cf_own:1460.72/1455.53
max/min cf_nei:1460.72/1455.53
max/min alpha_own: 0.00208993/0
max/min alpha_nei: 1.47843e-13/-0
DILUPBiCGStab:  Solving for p, Initial residual = 9.97972e-06, Final residual = 9.47446e-22, No Iterations 1
max(mag(U)): 3.04197
max/min p: 1e+07/1e+06
diagonal:  Solving for rho, Initial residual = 0, Final residual = 0, No Iterations 0
rho max/min : 1037.87 / 1033.44
time step continuity errors : sum local = 1.65757e-16, global = 9.33067e-18, cumulative = 0
max/min cSf: 0.58429/0.582215
max/min amaxSf: 0.585506/0.583251
max/min FaceSonicCourant: 0.466688/0.232929
max/min kappa: 1/0
PIMPLE: iteration 3
diagonal:  Solving for rho, Initial residual = 0, Final residual = 0, No Iterations 0
rho max/min : 1037.87 / 1033.44
DILUPBiCGStab:  Solving for Y.Liq, Initial residual = 0.0161487, Final residual = 8.18463e-19, No Iterations 1
Mass fraction min/max = 1/1
DILUPBiCGStab:  Solving for h, Initial residual = 2.51128e-05, Final residual = 2.10493e-21, No Iterations 1
max/min T: 294.045/291.959
max/min cf_own:1460.72/1455.53
max/min cf_nei:1460.72/1455.53
max/min alpha_own: 0.00208993/0
max/min alpha_nei: 1.6541e-13/-0
DILUPBiCGStab:  Solving for p, Initial residual = 8.86036e-08, Final residual = 8.24088e-24, No Iterations 1
max(mag(U)): 3.04197
max/min p: 1e+07/1e+06
diagonal:  Solving for rho, Initial residual = 0, Final residual = 0, No Iterations 0
rho max/min : 1037.87 / 1033.44
time step continuity errors : sum local = 1.66305e-16, global = 2.03079e-17, cumulative = 0
max/min cSf: 0.58429/0.582215
max/min amaxSf: 0.585506/0.583251
max/min FaceSonicCourant: 0.466688/0.232929
max/min kappa: 1/0
ExecutionTime = 5.02 s  ClockTime = 5 s

Mean and max Characteristic Courant Numbers = 0.233483 0.466688
Courant Number max: 0.000486807
deltaT = 2.00037e-07
Time = 9.95999e-05

PIMPLE: iteration 1
diagonal:  Solving for rho, Initial residual = 0, Final residual = 0, No Iterations 0
rho max/min : 1037.87 / 1033.44
DILUPBiCGStab:  Solving for Y.Liq, Initial residual = 0.0133856, Final residual = 6.57416e-19, No Iterations 1
Mass fraction min/max = 1/1
DILUPBiCGStab:  Solving for h, Initial residual = 0.00100807, Final residual = 6.74811e-20, No Iterations 1
max/min T: 294.045/291.959
max/min cf_own:1460.72/1455.53
max/min cf_nei:1460.72/1455.53
max/min alpha_own: 0.00208993/0
max/min alpha_nei: 1.54536e-13/-0
DILUPBiCGStab:  Solving for p, Initial residual = 0.000399248, Final residual = 3.32904e-20, No Iterations 1
max(mag(U)): 3.04197
max/min p: 1e+07/1e+06
diagonal:  Solving for rho, Initial residual = 0, Final residual = 0, No Iterations 0
rho max/min : 1037.87 / 1033.44
time step continuity errors : sum local = 1.79478e-16, global = -1.64659e-18, cumulative = 0
max/min cSf: 0.58429/0.582215
max/min amaxSf: 0.585506/0.583251
max/min FaceSonicCourant: 0.466688/0.232929
max/min kappa: 1/0
PIMPLE: iteration 2
diagonal:  Solving for rho, Initial residual = 0, Final residual = 0, No Iterations 0
rho max/min : 1037.87 / 1033.44
DILUPBiCGStab:  Solving for Y.Liq, Initial residual = 0.0173336, Final residual = 8.93172e-19, No Iterations 1
Mass fraction min/max = 1/1
DILUPBiCGStab:  Solving for h, Initial residual = 8.37894e-07, Final residual = 7.83043e-23, No Iterations 1
max/min T: 294.045/291.959
max/min cf_own:1460.72/1455.53
max/min cf_nei:1460.72/1455.53
max/min alpha_own: 0.00208993/0
max/min alpha_nei: 1.57411e-13/-0
DILUPBiCGStab:  Solving for p, Initial residual = 9.9398e-06, Final residual = 2.0559e-21, No Iterations 1
max(mag(U)): 3.04197
max/min p: 1e+07/1e+06
diagonal:  Solving for rho, Initial residual = 0, Final residual = 0, No Iterations 0
rho max/min : 1037.87 / 1033.44
time step continuity errors : sum local = 1.73166e-16, global = -9.05624e-18, cumulative = 0
max/min cSf: 0.58429/0.582215
max/min amaxSf: 0.585506/0.583251
max/min FaceSonicCourant: 0.466688/0.232929
max/min kappa: 1/0
PIMPLE: iteration 3
diagonal:  Solving for rho, Initial residual = 0, Final residual = 0, No Iterations 0
rho max/min : 1037.87 / 1033.44
DILUPBiCGStab:  Solving for Y.Liq, Initial residual = 0.0165878, Final residual = 9.09317e-19, No Iterations 1
Mass fraction min/max = 1/1
DILUPBiCGStab:  Solving for h, Initial residual = 2.49523e-05, Final residual = 5.65862e-21, No Iterations 1
max/min T: 294.045/291.959
max/min cf_own:1460.72/1455.53
max/min cf_nei:1460.72/1455.53
max/min alpha_own: 0.00208993/0
max/min alpha_nei: 1.76045e-13/-0
DILUPBiCGStab:  Solving for p, Initial residual = 7.10289e-08, Final residual = 1.34738e-23, No Iterations 1
max(mag(U)): 3.04197
max/min p: 1e+07/1e+06
diagonal:  Solving for rho, Initial residual = 0, Final residual = 0, No Iterations 0
rho max/min : 1037.87 / 1033.44
time step continuity errors : sum local = 1.65482e-16, global = 4.11647e-18, cumulative = 0
max/min cSf: 0.58429/0.582215
max/min amaxSf: 0.585506/0.583251
max/min FaceSonicCourant: 0.466688/0.232929
max/min kappa: 1/0
ExecutionTime = 5.03 s  ClockTime = 5 s

Mean and max Characteristic Courant Numbers = 0.233483 0.466688
Courant Number max: 0.000486807
deltaT = 2.00037e-07
Time = 9.98e-05

PIMPLE: iteration 1
diagonal:  Solving for rho, Initial residual = 0, Final residual = 0, No Iterations 0
rho max/min : 1037.87 / 1033.44
DILUPBiCGStab:  Solving for Y.Liq, Initial residual = 0.013935, Final residual = 7.19807e-19, No Iterations 1
Mass fraction min/max = 1/1
DILUPBiCGStab:  Solving for h, Initial residual = 0.00100605, Final residual = 8.59442e-20, No Iterations 1
max/min T: 294.045/291.959
max/min cf_own:1460.72/1455.53
max/min cf_nei:1460.72/1455.53
max/min alpha_own: 0.00208993/0
max/min alpha_nei: 1.54554e-13/-0
DILUPBiCGStab:  Solving for p, Initial residual = 0.000399567, Final residual = 6.97519e-20, No Iterations 1
max(mag(U)): 3.04197
max/min p: 1e+07/1e+06
diagonal:  Solving for rho, Initial residual = 0, Final residual = 0, No Iterations 0
rho max/min : 1037.87 / 1033.44
time step continuity errors : sum local = 1.73441e-16, global = 1.26238e-17, cumulative = 0
max/min cSf: 0.58429/0.582215
max/min amaxSf: 0.585506/0.583251
max/min FaceSonicCourant: 0.466688/0.232929
max/min kappa: 1/0
PIMPLE: iteration 2
diagonal:  Solving for rho, Initial residual = 0, Final residual = 0, No Iterations 0
rho max/min : 1037.87 / 1033.44
DILUPBiCGStab:  Solving for Y.Liq, Initial residual = 0.0175374, Final residual = 9.12083e-19, No Iterations 1
Mass fraction min/max = 1/1
DILUPBiCGStab:  Solving for h, Initial residual = 8.35962e-07, Final residual = 7.50804e-23, No Iterations 1
max/min T: 294.045/291.959
max/min cf_own:1460.72/1455.53
max/min cf_nei:1460.72/1455.53
max/min alpha_own: 0.00208993/0
max/min alpha_nei: 1.62754e-13/-0
DILUPBiCGStab:  Solving for p, Initial residual = 9.97639e-06, Final residual = 9.53362e-22, No Iterations 1
max(mag(U)): 3.04197
max/min p: 1e+07/1e+06
diagonal:  Solving for rho, Initial residual = 0, Final residual = 0, No Iterations 0
rho max/min : 1037.87 / 1033.44
time step continuity errors : sum local = 1.71245e-16, global = 1.37216e-17, cumulative = 0
max/min cSf: 0.58429/0.582215
max/min amaxSf: 0.585506/0.583251
max/min FaceSonicCourant: 0.466688/0.232929
max/min kappa: 1/0
PIMPLE: iteration 3
diagonal:  Solving for rho, Initial residual = 0, Final residual = 0, No Iterations 0
rho max/min : 1037.87 / 1033.44
DILUPBiCGStab:  Solving for Y.Liq, Initial residual = 0.016299, Final residual = 7.90909e-19, No Iterations 1
Mass fraction min/max = 1/1
DILUPBiCGStab:  Solving for h, Initial residual = 2.49608e-05, Final residual = 4.37408e-21, No Iterations 1
max/min T: 294.045/291.959
max/min cf_own:1460.72/1455.53
max/min cf_nei:1460.72/1455.53
max/min alpha_own: 0.00208993/0
max/min alpha_nei: 1.50241e-13/-0
DILUPBiCGStab:  Solving for p, Initial residual = 9.71039e-08, Final residual = 1.36361e-23, No Iterations 1
max(mag(U)): 3.04197
max/min p: 1e+07/1e+06
diagonal:  Solving for rho, Initial residual = 0, Final residual = 0, No Iterations 0
rho max/min : 1037.87 / 1033.44
time step continuity errors : sum local = 1.5917e-16, global = 1.48193e-17, cumulative = 0
max/min cSf: 0.58429/0.582215
max/min amaxSf: 0.585506/0.583251
max/min FaceSonicCourant: 0.466688/0.232929
max/min kappa: 1/0
ExecutionTime = 5.04 s  ClockTime = 5 s

Mean and max Characteristic Courant Numbers = 0.233483 0.466688
Courant Number max: 0.000486807
deltaT = 2.00037e-07
Time = 0.0001

PIMPLE: iteration 1
diagonal:  Solving for rho, Initial residual = 0, Final residual = 0, No Iterations 0
rho max/min : 1037.87 / 1033.44
DILUPBiCGStab:  Solving for Y.Liq, Initial residual = 0.0141292, Final residual = 7.28164e-19, No Iterations 1
Mass fraction min/max = 1/1
DILUPBiCGStab:  Solving for h, Initial residual = 0.00100403, Final residual = 9.28867e-20, No Iterations 1
max/min T: 294.045/291.959
max/min cf_own:1460.72/1455.53
max/min cf_nei:1460.72/1455.53
max/min alpha_own: 0.00208993/0
max/min alpha_nei: 1.68215e-13/-0
DILUPBiCGStab:  Solving for p, Initial residual = 0.000399887, Final residual = 4.52801e-20, No Iterations 1
max(mag(U)): 3.04197
max/min p: 1e+07/1e+06
diagonal:  Solving for rho, Initial residual = 0, Final residual = 0, No Iterations 0
rho max/min : 1037.87 / 1033.44
time step continuity errors : sum local = 1.74538e-16, global = 1.37216e-17, cumulative = 0
max/min cSf: 0.58429/0.582215
max/min amaxSf: 0.585506/0.583251
max/min FaceSonicCourant: 0.466688/0.232929
max/min kappa: 1/0
PIMPLE: iteration 2
diagonal:  Solving for rho, Initial residual = 0, Final residual = 0, No Iterations 0
rho max/min : 1037.87 / 1033.44
DILUPBiCGStab:  Solving for Y.Liq, Initial residual = 0.0174177, Final residual = 9.65622e-19, No Iterations 1
Mass fraction min/max = 1/1
DILUPBiCGStab:  Solving for h, Initial residual = 8.33007e-07, Final residual = 6.30655e-23, No Iterations 1
max/min T: 294.045/291.959
max/min cf_own:1460.72/1455.53
max/min cf_nei:1460.72/1455.53
max/min alpha_own: 0.00208993/0
max/min alpha_nei: 1.6709e-13/-0
DILUPBiCGStab:  Solving for p, Initial residual = 1.00144e-05, Final residual = 1.71836e-21, No Iterations 1
max(mag(U)): 3.04197
max/min p: 1e+07/1e+06
diagonal:  Solving for rho, Initial residual = 0, Final residual = 0, No Iterations 0
rho max/min : 1037.87 / 1033.44
time step continuity errors : sum local = 1.71794e-16, global = 6.03749e-18, cumulative = 0
max/min cSf: 0.58429/0.582215
max/min amaxSf: 0.585506/0.583251
max/min FaceSonicCourant: 0.466688/0.232929
max/min kappa: 1/0
PIMPLE: iteration 3
diagonal:  Solving for rho, Initial residual = 0, Final residual = 0, No Iterations 0
rho max/min : 1037.87 / 1033.44
DILUPBiCGStab:  Solving for Y.Liq, Initial residual = 0.0164244, Final residual = 8.6072e-19, No Iterations 1
Mass fraction min/max = 1/1
DILUPBiCGStab:  Solving for h, Initial residual = 2.49775e-05, Final residual = 2.22864e-21, No Iterations 1
max/min T: 294.045/291.959
max/min cf_own:1460.72/1455.53
max/min cf_nei:1460.72/1455.53
max/min alpha_own: 0.00208993/0
max/min alpha_nei: 1.63217e-13/-0
DILUPBiCGStab:  Solving for p, Initial residual = 1.0124e-07, Final residual = 2.14866e-23, No Iterations 1
max(mag(U)): 3.04197
max/min p: 1e+07/1e+06
diagonal:  Solving for rho, Initial residual = 0, Final residual = 0, No Iterations 0
rho max/min : 1037.87 / 1033.44
time step continuity errors : sum local = 1.60268e-16, global = 7.13522e-18, cumulative = 0
max/min cSf: 0.58429/0.582215
max/min amaxSf: 0.585506/0.583251
max/min FaceSonicCourant: 0.466688/0.232929
max/min kappa: 1/0
ExecutionTime = 5.06 s  ClockTime = 5 s

End

