/*---------------------------------------------------------------------------*\
| =========                 |                                                 |
| \\      /  F ield         | OpenFOAM: The Open Source CFD Toolbox           |
|  \\    /   O peration     | Version:  2312                                  |
|   \\  /    A nd           | Website:  www.openfoam.com                      |
|    \\/     M anipulation  |                                                 |
\*---------------------------------------------------------------------------*/
Build  : e3190d33-20240103 OPENFOAM=2312 version=v2312
Arch   : "LSB;label=32;scalar=64"
Exec   : compressibleInterFoam
Date   : Aug 09 2024
Time   : 19:24:52
Host   : dyfluid-virtual-machine
PID    : 52692
I/O    : uncollated
Case   : /home/dyfluid/OpenFOAM/dyfluid-v2312/solvers/solvers/twoPhaseMixingHLLCFoam/cases/6LiqSod/compressibleInterFoam
nProcs : 1
trapFpe: Floating point exception trapping enabled (FOAM_SIGFPE).
fileModificationChecking : Monitoring run-time modified files using timeStampMaster (fileModificationSkew 5, maxFileModificationPolls 20)
allowSystemOperations : Allowing user-supplied system call operations

// * * * * * * * * * * * * * * * * * * * * * * * * * * * * * * * * * * * * * //
Create time

Create mesh for time = 0


PIMPLE: no residual control data found. Calculations will employ 3 corrector loops

Reading field p_rgh

Reading field U

Reading/calculating face flux field phi

Constructing twoPhaseMixtureThermo

Selecting surfaceTensionModel constant
Selecting thermodynamics package 
{
    type            heRhoThermo;
    mixture         pureMixture;
    transport       const;
    thermo          hConst;
    equationOfState perfectFluid;
    specie          specie;
    energy          sensibleEnthalpy;
}

Selecting thermodynamics package 
{
    type            heRhoThermo;
    mixture         pureMixture;
    transport       const;
    thermo          hConst;
    equationOfState perfectGas;
    specie          specie;
    energy          sensibleEnthalpy;
}

Reading thermophysical properties


Reading g

Reading hRef
Calculating field g.h

Selecting turbulence model type laminar
Selecting laminar stress model Stokes
Creating field kinetic energy K

No MRF models present

No finite volume options present
Courant Number mean: 0 max: 0

Starting time loop

Sampled set:
    line -> csv

Courant Number mean: 0 max: 0
Interface Courant Number mean: 0 max: 0
deltaT = 1.2e-09
Time = 1.2e-09

PIMPLE: iteration 1
DILUPBiCGStab:  Solving for alpha.water, Initial residual = 0, Final residual = 0, No Iterations 0
Phase-1 volume fraction = 1  Min(alpha.water) = 1  Max(alpha.water) = 1
MULES: Correcting alpha.water
MULES: Correcting alpha.water
Phase-1 volume fraction = 1  Min(alpha.water) = 1  Max(alpha.water) = 1
DILUPBiCGStab:  Solving for T, Initial residual = 1, Final residual = 5.55112e-18, No Iterations 1
DILUPBiCGStab:  Solving for p_rgh, Initial residual = 4.68099e-09, Final residual = 8.91166e-25, No Iterations 1
PIMPLE: iteration 2
DILUPBiCGStab:  Solving for alpha.water, Initial residual = 0, Final residual = 0, No Iterations 0
Phase-1 volume fraction = 1  Min(alpha.water) = 1  Max(alpha.water) = 1
MULES: Correcting alpha.water
MULES: Correcting alpha.water
Phase-1 volume fraction = 1  Min(alpha.water) = 1  Max(alpha.water) = 1
DILUPBiCGStab:  Solving for T, Initial residual = 0.999697, Final residual = 1.03744e-21, No Iterations 1
DILUPBiCGStab:  Solving for p_rgh, Initial residual = 9.92155e-12, Final residual = 9.92155e-12, No Iterations 0
PIMPLE: iteration 3
DILUPBiCGStab:  Solving for alpha.water, Initial residual = 0, Final residual = 0, No Iterations 0
Phase-1 volume fraction = 1  Min(alpha.water) = 1  Max(alpha.water) = 1
MULES: Correcting alpha.water
MULES: Correcting alpha.water
Phase-1 volume fraction = 1  Min(alpha.water) = 1  Max(alpha.water) = 1
DILUPBiCGStab:  Solving for T, Initial residual = 6.69086e-05, Final residual = 3.73753e-22, No Iterations 1
DILUPBiCGStab:  Solving for p_rgh, Initial residual = 9.92154e-12, Final residual = 9.92154e-12, No Iterations 0
ExecutionTime = 0.03 s  ClockTime = 0 s

Courant Number mean: 1.00107e-11 max: 4.00426e-09
Interface Courant Number mean: 0 max: 0
deltaT = 1.44001e-09
Time = 2.64002e-09

PIMPLE: iteration 1
DILUPBiCGStab:  Solving for alpha.water, Initial residual = 0, Final residual = 0, No Iterations 0
Phase-1 volume fraction = 1  Min(alpha.water) = 1  Max(alpha.water) = 1
MULES: Correcting alpha.water
MULES: Correcting alpha.water
Phase-1 volume fraction = 1  Min(alpha.water) = 1  Max(alpha.water) = 1
DILUPBiCGStab:  Solving for T, Initial residual = 0.350804, Final residual = 1.05552e-21, No Iterations 1
DILUPBiCGStab:  Solving for p_rgh, Initial residual = 1.09537e-08, Final residual = 8.91171e-25, No Iterations 1
PIMPLE: iteration 2
DILUPBiCGStab:  Solving for alpha.water, Initial residual = 1, Final residual = 1.57772e-30, No Iterations 1
Phase-1 volume fraction = 1  Min(alpha.water) = 1  Max(alpha.water) = 1
MULES: Correcting alpha.water
MULES: Correcting alpha.water
Phase-1 volume fraction = 1  Min(alpha.water) = 1  Max(alpha.water) = 1
DILUPBiCGStab:  Solving for T, Initial residual = 0.197939, Final residual = 6.27445e-22, No Iterations 1
DILUPBiCGStab:  Solving for p_rgh, Initial residual = 1.13337e-11, Final residual = 7.01717e-28, No Iterations 1
PIMPLE: iteration 3
DILUPBiCGStab:  Solving for alpha.water, Initial residual = 1, Final residual = 1.57772e-30, No Iterations 1
Phase-1 volume fraction = 1  Min(alpha.water) = 1  Max(alpha.water) = 1
MULES: Correcting alpha.water
MULES: Correcting alpha.water
Phase-1 volume fraction = 1  Min(alpha.water) = 1  Max(alpha.water) = 1
DILUPBiCGStab:  Solving for T, Initial residual = 1.3755e-05, Final residual = 4.66171e-22, No Iterations 1
DILUPBiCGStab:  Solving for p_rgh, Initial residual = 1.6339e-16, Final residual = 1.6339e-16, No Iterations 0
ExecutionTime = 0.04 s  ClockTime = 0 s

Courant Number mean: 2.94316e-11 max: 1.05739e-08
Interface Courant Number mean: 0 max: 0
deltaT = 1.72803e-09
Time = 4.36804e-09

PIMPLE: iteration 1
DILUPBiCGStab:  Solving for alpha.water, Initial residual = 0, Final residual = 0, No Iterations 0
Phase-1 volume fraction = 1  Min(alpha.water) = 1  Max(alpha.water) = 1
MULES: Correcting alpha.water
MULES: Correcting alpha.water
Phase-1 volume fraction = 1  Min(alpha.water) = 1  Max(alpha.water) = 1
DILUPBiCGStab:  Solving for T, Initial residual = 0.266068, Final residual = 1.48451e-17, No Iterations 1
DILUPBiCGStab:  Solving for p_rgh, Initial residual = 2.03537e-08, Final residual = 3.636e-24, No Iterations 1
PIMPLE: iteration 2
DILUPBiCGStab:  Solving for alpha.water, Initial residual = 1, Final residual = 8.2718e-25, No Iterations 1
Phase-1 volume fraction = 1  Min(alpha.water) = 1  Max(alpha.water) = 1
MULES: Correcting alpha.water
MULES: Correcting alpha.water
Phase-1 volume fraction = 1  Min(alpha.water) = 1  Max(alpha.water) = 1
DILUPBiCGStab:  Solving for T, Initial residual = 0.103302, Final residual = 2.79533e-18, No Iterations 1
DILUPBiCGStab:  Solving for p_rgh, Initial residual = 1.5281e-11, Final residual = 6.17125e-32, No Iterations 1
PIMPLE: iteration 3
DILUPBiCGStab:  Solving for alpha.water, Initial residual = 0, Final residual = 0, No Iterations 0
Phase-1 volume fraction = 1  Min(alpha.water) = 1  Max(alpha.water) = 1
MULES: Correcting alpha.water
MULES: Correcting alpha.water
Phase-1 volume fraction = 1  Min(alpha.water) = 1  Max(alpha.water) = 1
DILUPBiCGStab:  Solving for T, Initial residual = 9.55942e-07, Final residual = 1.63278e-23, No Iterations 1
DILUPBiCGStab:  Solving for p_rgh, Initial residual = 1.86145e-16, Final residual = 1.86145e-16, No Iterations 0
ExecutionTime = 0.05 s  ClockTime = 0 s

Courant Number mean: 5.93848e-11 max: 2.05891e-08
Interface Courant Number mean: 0 max: 0
deltaT = 2.07361e-09
Time = 6.44165e-09

PIMPLE: iteration 1
DILUPBiCGStab:  Solving for alpha.water, Initial residual = 0, Final residual = 0, No Iterations 0
Phase-1 volume fraction = 1  Min(alpha.water) = 1  Max(alpha.water) = 1
MULES: Correcting alpha.water
MULES: Correcting alpha.water
Phase-1 volume fraction = 1  Min(alpha.water) = 1  Max(alpha.water) = 1
DILUPBiCGStab:  Solving for T, Initial residual = 0.221873, Final residual = 1.59884e-17, No Iterations 1
DILUPBiCGStab:  Solving for p_rgh, Initial residual = 3.45471e-08, Final residual = 2.56656e-24, No Iterations 1
PIMPLE: iteration 2
DILUPBiCGStab:  Solving for alpha.water, Initial residual = 0, Final residual = 0, No Iterations 0
Phase-1 volume fraction = 1  Min(alpha.water) = 1  Max(alpha.water) = 1
MULES: Correcting alpha.water
MULES: Correcting alpha.water
Phase-1 volume fraction = 1  Min(alpha.water) = 1  Max(alpha.water) = 1
DILUPBiCGStab:  Solving for T, Initial residual = 0.0699151, Final residual = 9.51903e-20, No Iterations 1
DILUPBiCGStab:  Solving for p_rgh, Initial residual = 2.13817e-11, Final residual = 2.00513e-27, No Iterations 1
PIMPLE: iteration 3
DILUPBiCGStab:  Solving for alpha.water, Initial residual = 0.333333, Final residual = 1.10291e-24, No Iterations 1
Phase-1 volume fraction = 1  Min(alpha.water) = 1  Max(alpha.water) = 1
MULES: Correcting alpha.water
MULES: Correcting alpha.water
Phase-1 volume fraction = 1  Min(alpha.water) = 1  Max(alpha.water) = 1
DILUPBiCGStab:  Solving for T, Initial residual = 2.65437e-07, Final residual = 9.82315e-24, No Iterations 1
DILUPBiCGStab:  Solving for p_rgh, Initial residual = 2.35382e-16, Final residual = 2.35382e-16, No Iterations 0
ExecutionTime = 0.06 s  ClockTime = 0 s

Courant Number mean: 1.01062e-10 max: 3.49999e-08
Interface Courant Number mean: 0 max: 0
deltaT = 2.48833e-09
Time = 8.92998e-09

PIMPLE: iteration 1
DILUPBiCGStab:  Solving for alpha.water, Initial residual = 1, Final residual = 1.97215e-31, No Iterations 1
Phase-1 volume fraction = 1  Min(alpha.water) = 1  Max(alpha.water) = 1
MULES: Correcting alpha.water
MULES: Correcting alpha.water
Phase-1 volume fraction = 1  Min(alpha.water) = 1  Max(alpha.water) = 1
DILUPBiCGStab:  Solving for T, Initial residual = 0.19523, Final residual = 2.51805e-17, No Iterations 1
DILUPBiCGStab:  Solving for p_rgh, Initial residual = 5.58595e-08, Final residual = 2.35364e-30, No Iterations 1
PIMPLE: iteration 2
DILUPBiCGStab:  Solving for alpha.water, Initial residual = 1, Final residual = 3.30872e-24, No Iterations 1
Phase-1 volume fraction = 1  Min(alpha.water) = 1  Max(alpha.water) = 1
MULES: Correcting alpha.water
MULES: Correcting alpha.water
Phase-1 volume fraction = 1  Min(alpha.water) = 1  Max(alpha.water) = 1
DILUPBiCGStab:  Solving for T, Initial residual = 0.0536253, Final residual = 2.09405e-18, No Iterations 1
DILUPBiCGStab:  Solving for p_rgh, Initial residual = 3.04159e-11, Final residual = 9.41794e-30, No Iterations 1
PIMPLE: iteration 3
DILUPBiCGStab:  Solving for alpha.water, Initial residual = 1, Final residual = 1.65436e-24, No Iterations 1
Phase-1 volume fraction = 1  Min(alpha.water) = 1  Max(alpha.water) = 1
MULES: Correcting alpha.water
MULES: Correcting alpha.water
Phase-1 volume fraction = 1  Min(alpha.water) = 1  Max(alpha.water) = 1
DILUPBiCGStab:  Solving for T, Initial residual = 3.3492e-06, Final residual = 4.70884e-23, No Iterations 1
DILUPBiCGStab:  Solving for p_rgh, Initial residual = 2.71518e-16, Final residual = 2.71518e-16, No Iterations 0
ExecutionTime = 0.06 s  ClockTime = 0 s

Courant Number mean: 1.68434e-10 max: 5.75987e-08
Interface Courant Number mean: 0 max: 0
deltaT = 2.98597e-09
Time = 1.19159e-08

PIMPLE: iteration 1
DILUPBiCGStab:  Solving for alpha.water, Initial residual = 0.333333, Final residual = 2.85095e-50, No Iterations 1
Phase-1 volume fraction = 1  Min(alpha.water) = 1  Max(alpha.water) = 1
MULES: Correcting alpha.water
MULES: Correcting alpha.water
Phase-1 volume fraction = 1  Min(alpha.water) = 1  Max(alpha.water) = 1
DILUPBiCGStab:  Solving for T, Initial residual = 0.177713, Final residual = 3.3603e-18, No Iterations 1
DILUPBiCGStab:  Solving for p_rgh, Initial residual = 8.76374e-08, Final residual = 1.47846e-24, No Iterations 1
PIMPLE: iteration 2
DILUPBiCGStab:  Solving for alpha.water, Initial residual = 0.25, Final residual = 1.71057e-49, No Iterations 1
Phase-1 volume fraction = 1  Min(alpha.water) = 1  Max(alpha.water) = 1
MULES: Correcting alpha.water
MULES: Correcting alpha.water
Phase-1 volume fraction = 1  Min(alpha.water) = 1  Max(alpha.water) = 1
DILUPBiCGStab:  Solving for T, Initial residual = 0.049994, Final residual = 6.65137e-18, No Iterations 1
DILUPBiCGStab:  Solving for p_rgh, Initial residual = 4.34275e-11, Final residual = 3.67844e-31, No Iterations 1
PIMPLE: iteration 3
DILUPBiCGStab:  Solving for alpha.water, Initial residual = 0.2, Final residual = 3.18618e-59, No Iterations 1
Phase-1 volume fraction = 1  Min(alpha.water) = 1  Max(alpha.water) = 1
MULES: Correcting alpha.water
MULES: Correcting alpha.water
Phase-1 volume fraction = 1  Min(alpha.water) = 1  Max(alpha.water) = 1
DILUPBiCGStab:  Solving for T, Initial residual = 1.28324e-06, Final residual = 1.13975e-24, No Iterations 1
DILUPBiCGStab:  Solving for p_rgh, Initial residual = 3.05958e-16, Final residual = 3.05958e-16, No Iterations 0
ExecutionTime = 0.07 s  ClockTime = 0 s

Courant Number mean: 2.65763e-10 max: 9.06678e-08
Interface Courant Number mean: 0 max: 0
deltaT = 3.58316e-09
Time = 1.54991e-08

PIMPLE: iteration 1
DILUPBiCGStab:  Solving for alpha.water, Initial residual = 0.25, Final residual = 5.39761e-79, No Iterations 1
Phase-1 volume fraction = 1  Min(alpha.water) = 1  Max(alpha.water) = 1
MULES: Correcting alpha.water
MULES: Correcting alpha.water
Phase-1 volume fraction = 1  Min(alpha.water) = 1  Max(alpha.water) = 1
DILUPBiCGStab:  Solving for T, Initial residual = 0.165503, Final residual = 1.22673e-17, No Iterations 1
DILUPBiCGStab:  Solving for p_rgh, Initial residual = 1.34728e-07, Final residual = 3.54833e-24, No Iterations 1
PIMPLE: iteration 2
DILUPBiCGStab:  Solving for alpha.water, Initial residual = 0.111111, Final residual = 8.97548e-29, No Iterations 1
Phase-1 volume fraction = 1  Min(alpha.water) = 1  Max(alpha.water) = 1
MULES: Correcting alpha.water
MULES: Correcting alpha.water
Phase-1 volume fraction = 1  Min(alpha.water) = 1  Max(alpha.water) = 1
DILUPBiCGStab:  Solving for T, Initial residual = 0.0476331, Final residual = 1.04999e-18, No Iterations 1
DILUPBiCGStab:  Solving for p_rgh, Initial residual = 6.22663e-11, Final residual = 4.92513e-31, No Iterations 1
PIMPLE: iteration 3
DILUPBiCGStab:  Solving for alpha.water, Initial residual = 0.2, Final residual = 1.32349e-24, No Iterations 1
Phase-1 volume fraction = 1  Min(alpha.water) = 1  Max(alpha.water) = 1
MULES: Correcting alpha.water
MULES: Correcting alpha.water
Phase-1 volume fraction = 1  Min(alpha.water) = 1  Max(alpha.water) = 1
DILUPBiCGStab:  Solving for T, Initial residual = 2.32641e-07, Final residual = 3.33269e-24, No Iterations 1
DILUPBiCGStab:  Solving for p_rgh, Initial residual = 1.39076e-16, Final residual = 1.39076e-16, No Iterations 0
ExecutionTime = 0.08 s  ClockTime = 0 s

Courant Number mean: 4.13625e-10 max: 1.40399e-07
Interface Courant Number mean: 0 max: 0
deltaT = 4.29985e-09
Time = 1.9799e-08

PIMPLE: iteration 1
DILUPBiCGStab:  Solving for alpha.water, Initial residual = 0.181818, Final residual = 2.40634e-24, No Iterations 1
Phase-1 volume fraction = 1  Min(alpha.water) = 1  Max(alpha.water) = 1
MULES: Correcting alpha.water
MULES: Correcting alpha.water
Phase-1 volume fraction = 1  Min(alpha.water) = 1  Max(alpha.water) = 1
DILUPBiCGStab:  Solving for T, Initial residual = 0.156632, Final residual = 3.53704e-18, No Iterations 1
DILUPBiCGStab:  Solving for p_rgh, Initial residual = 2.0415e-07, Final residual = 2.55472e-23, No Iterations 1
PIMPLE: iteration 2
DILUPBiCGStab:  Solving for alpha.water, Initial residual = 0.25, Final residual = 4.62593e-18, No Iterations 1
Phase-1 volume fraction = 1  Min(alpha.water) = 1  Max(alpha.water) = 1
MULES: Correcting alpha.water
MULES: Correcting alpha.water
Phase-1 volume fraction = 1  Min(alpha.water) = 1  Max(alpha.water) = 1
DILUPBiCGStab:  Solving for T, Initial residual = 0.0457483, Final residual = 8.77177e-19, No Iterations 1
DILUPBiCGStab:  Solving for p_rgh, Initial residual = 8.93679e-11, Final residual = 3.2649e-29, No Iterations 1
PIMPLE: iteration 3
DILUPBiCGStab:  Solving for alpha.water, Initial residual = 0.133333, Final residual = 3.70074e-18, No Iterations 1
Phase-1 volume fraction = 1  Min(alpha.water) = 1  Max(alpha.water) = 1
MULES: Correcting alpha.water
MULES: Correcting alpha.water
Phase-1 volume fraction = 1  Min(alpha.water) = 1  Max(alpha.water) = 1
DILUPBiCGStab:  Solving for T, Initial residual = 2.25908e-08, Final residual = 1.25404e-24, No Iterations 1
DILUPBiCGStab:  Solving for p_rgh, Initial residual = 3.7559e-16, Final residual = 3.7559e-16, No Iterations 0
ExecutionTime = 0.08 s  ClockTime = 0 s

Courant Number mean: 6.3084e-10 max: 2.13559e-07
Interface Courant Number mean: 0 max: 0
deltaT = 5.15974e-09
Time = 2.49587e-08

PIMPLE: iteration 1
DILUPBiCGStab:  Solving for alpha.water, Initial residual = 0.230769, Final residual = 4.07234e-24, No Iterations 1
Phase-1 volume fraction = 1  Min(alpha.water) = 1  Max(alpha.water) = 1
MULES: Correcting alpha.water
MULES: Correcting alpha.water
Phase-1 volume fraction = 1  Min(alpha.water) = 1  Max(alpha.water) = 1
DILUPBiCGStab:  Solving for T, Initial residual = 0.149997, Final residual = 3.75554e-17, No Iterations 1
DILUPBiCGStab:  Solving for p_rgh, Initial residual = 3.06042e-07, Final residual = 3.06554e-23, No Iterations 1
PIMPLE: iteration 2
DILUPBiCGStab:  Solving for alpha.water, Initial residual = 0.25, Final residual = 4.62593e-18, No Iterations 1
Phase-1 volume fraction = 1  Min(alpha.water) = 1  Max(alpha.water) = 1
MULES: Correcting alpha.water
MULES: Correcting alpha.water
Phase-1 volume fraction = 1  Min(alpha.water) = 1  Max(alpha.water) = 1
DILUPBiCGStab:  Solving for T, Initial residual = 0.0443464, Final residual = 7.0682e-20, No Iterations 1
DILUPBiCGStab:  Solving for p_rgh, Initial residual = 1.28406e-10, Final residual = 8.13727e-29, No Iterations 1
PIMPLE: iteration 3
DILUPBiCGStab:  Solving for alpha.water, Initial residual = 0.263158, Final residual = 5.84328e-18, No Iterations 1
Phase-1 volume fraction = 1  Min(alpha.water) = 1  Max(alpha.water) = 1
MULES: Correcting alpha.water
MULES: Correcting alpha.water
Phase-1 volume fraction = 1  Min(alpha.water) = 1  Max(alpha.water) = 1
DILUPBiCGStab:  Solving for T, Initial residual = 6.33988e-07, Final residual = 1.73556e-23, No Iterations 1
DILUPBiCGStab:  Solving for p_rgh, Initial residual = 3.22356e-16, Final residual = 3.22356e-16, No Iterations 0
ExecutionTime = 0.09 s  ClockTime = 0 s

Courant Number mean: 9.51521e-10 max: 3.21308e-07
Interface Courant Number mean: 0 max: 0
deltaT = 6.19156e-09
Time = 3.11503e-08

PIMPLE: iteration 1
DILUPBiCGStab:  Solving for alpha.water, Initial residual = 0.142857, Final residual = 1.8907e-24, No Iterations 1
Phase-1 volume fraction = 1  Min(alpha.water) = 1  Max(alpha.water) = 1
MULES: Correcting alpha.water
MULES: Correcting alpha.water
Phase-1 volume fraction = 1  Min(alpha.water) = 1  Max(alpha.water) = 1
DILUPBiCGStab:  Solving for T, Initial residual = 0.144919, Final residual = 8.55916e-18, No Iterations 1
DILUPBiCGStab:  Solving for p_rgh, Initial residual = 4.55076e-07, Final residual = 3.06591e-23, No Iterations 1
PIMPLE: iteration 2
DILUPBiCGStab:  Solving for alpha.water, Initial residual = 0.384615, Final residual = 6.2138e-29, No Iterations 1
Phase-1 volume fraction = 1  Min(alpha.water) = 1  Max(alpha.water) = 1
MULES: Correcting alpha.water
MULES: Correcting alpha.water
Phase-1 volume fraction = 1  Min(alpha.water) = 1  Max(alpha.water) = 1
DILUPBiCGStab:  Solving for T, Initial residual = 0.0432409, Final residual = 8.80058e-19, No Iterations 1
DILUPBiCGStab:  Solving for p_rgh, Initial residual = 1.84583e-10, Final residual = 1.20247e-26, No Iterations 1
PIMPLE: iteration 3
DILUPBiCGStab:  Solving for alpha.water, Initial residual = 0.368421, Final residual = 5.84328e-18, No Iterations 1
Phase-1 volume fraction = 1  Min(alpha.water) = 1  Max(alpha.water) = 1
MULES: Correcting alpha.water
MULES: Correcting alpha.water
Phase-1 volume fraction = 1  Min(alpha.water) = 1  Max(alpha.water) = 1
DILUPBiCGStab:  Solving for T, Initial residual = 4.36092e-07, Final residual = 7.34717e-24, No Iterations 1
DILUPBiCGStab:  Solving for p_rgh, Initial residual = 3.6098e-16, Final residual = 3.6098e-16, No Iterations 0
ExecutionTime = 0.1 s  ClockTime = 0 s

Courant Number mean: 1.42147e-09 max: 4.7908e-07
Interface Courant Number mean: 0 max: 0
deltaT = 7.42987e-09
Time = 3.85801e-08

PIMPLE: iteration 1
DILUPBiCGStab:  Solving for alpha.water, Initial residual = 0.333333, Final residual = 1.34632e-28, No Iterations 1
Phase-1 volume fraction = 1  Min(alpha.water) = 1  Max(alpha.water) = 1
MULES: Correcting alpha.water
MULES: Correcting alpha.water
Phase-1 volume fraction = 1  Min(alpha.water) = 1  Max(alpha.water) = 1
DILUPBiCGStab:  Solving for T, Initial residual = 0.140971, Final residual = 1.30341e-17, No Iterations 1
DILUPBiCGStab:  Solving for p_rgh, Initial residual = 6.72455e-07, Final residual = 1.47183e-23, No Iterations 1
PIMPLE: iteration 2
DILUPBiCGStab:  Solving for alpha.water, Initial residual = 0.384615, Final residual = 3.7926e-33, No Iterations 1
Phase-1 volume fraction = 1  Min(alpha.water) = 1  Max(alpha.water) = 1
MULES: Correcting alpha.water
MULES: Correcting alpha.water
Phase-1 volume fraction = 1  Min(alpha.water) = 1  Max(alpha.water) = 1
DILUPBiCGStab:  Solving for T, Initial residual = 0.0423722, Final residual = 7.26414e-22, No Iterations 1
DILUPBiCGStab:  Solving for p_rgh, Initial residual = 2.65442e-10, Final residual = 1.87541e-30, No Iterations 1
PIMPLE: iteration 3
DILUPBiCGStab:  Solving for alpha.water, Initial residual = 0, Final residual = 0, No Iterations 0
Phase-1 volume fraction = 1  Min(alpha.water) = 1  Max(alpha.water) = 1
MULES: Correcting alpha.water
MULES: Correcting alpha.water
Phase-1 volume fraction = 1  Min(alpha.water) = 1  Max(alpha.water) = 1
DILUPBiCGStab:  Solving for T, Initial residual = 2.02797e-07, Final residual = 8.94637e-25, No Iterations 1
DILUPBiCGStab:  Solving for p_rgh, Initial residual = 5.56123e-16, Final residual = 5.56123e-16, No Iterations 0
ExecutionTime = 0.11 s  ClockTime = 0 s

Courant Number mean: 2.10856e-09 max: 7.09514e-07
Interface Courant Number mean: 0 max: 0
deltaT = 8.91557e-09
Time = 4.74957e-08

PIMPLE: iteration 1
DILUPBiCGStab:  Solving for alpha.water, Initial residual = 0.0666667, Final residual = 1.76465e-24, No Iterations 1
Phase-1 volume fraction = 1  Min(alpha.water) = 1  Max(alpha.water) = 1
MULES: Correcting alpha.water
MULES: Correcting alpha.water
Phase-1 volume fraction = 1  Min(alpha.water) = 1  Max(alpha.water) = 1
DILUPBiCGStab:  Solving for T, Initial residual = 0.13785, Final residual = 2.07047e-17, No Iterations 1
DILUPBiCGStab:  Solving for p_rgh, Initial residual = 9.8871e-07, Final residual = 1.05971e-22, No Iterations 1
PIMPLE: iteration 2
DILUPBiCGStab:  Solving for alpha.water, Initial residual = 0.0625, Final residual = 1.50464e-36, No Iterations 1
Phase-1 volume fraction = 1  Min(alpha.water) = 1  Max(alpha.water) = 1
MULES: Correcting alpha.water
MULES: Correcting alpha.water
Phase-1 volume fraction = 1  Min(alpha.water) = 1  Max(alpha.water) = 1
DILUPBiCGStab:  Solving for T, Initial residual = 0.0416769, Final residual = 6.64698e-18, No Iterations 1
DILUPBiCGStab:  Solving for p_rgh, Initial residual = 3.81746e-10, Final residual = 3.45057e-26, No Iterations 1
PIMPLE: iteration 3
DILUPBiCGStab:  Solving for alpha.water, Initial residual = 0.0322581, Final residual = 3.25723e-30, No Iterations 1
Phase-1 volume fraction = 1  Min(alpha.water) = 1  Max(alpha.water) = 1
MULES: Correcting alpha.water
MULES: Correcting alpha.water
Phase-1 volume fraction = 1  Min(alpha.water) = 1  Max(alpha.water) = 1
DILUPBiCGStab:  Solving for T, Initial residual = 2.68399e-08, Final residual = 1.07274e-24, No Iterations 1
DILUPBiCGStab:  Solving for p_rgh, Initial residual = 8.51111e-16, Final residual = 8.51111e-16, No Iterations 0
ExecutionTime = 0.11 s  ClockTime = 0 s

Courant Number mean: 3.11007e-09 max: 1.0451e-06
Interface Courant Number mean: 0 max: 0
deltaT = 1.06981e-08
Time = 5.81938e-08

PIMPLE: iteration 1
DILUPBiCGStab:  Solving for alpha.water, Initial residual = 0.125, Final residual = 1.54074e-33, No Iterations 1
Phase-1 volume fraction = 1  Min(alpha.water) = 1  Max(alpha.water) = 1
MULES: Correcting alpha.water
MULES: Correcting alpha.water
Phase-1 volume fraction = 1  Min(alpha.water) = 1  Max(alpha.water) = 1
DILUPBiCGStab:  Solving for T, Initial residual = 0.135353, Final residual = 2.10102e-17, No Iterations 1
DILUPBiCGStab:  Solving for p_rgh, Initial residual = 1.44786e-06, Final residual = 2.8451e-26, No Iterations 1
PIMPLE: iteration 2
DILUPBiCGStab:  Solving for alpha.water, Initial residual = 0.157895, Final residual = 5.84328e-18, No Iterations 1
Phase-1 volume fraction = 1  Min(alpha.water) = 1  Max(alpha.water) = 1
MULES: Correcting alpha.water
MULES: Correcting alpha.water
Phase-1 volume fraction = 1  Min(alpha.water) = 1  Max(alpha.water) = 1
DILUPBiCGStab:  Solving for T, Initial residual = 0.0411157, Final residual = 4.56826e-18, No Iterations 1
DILUPBiCGStab:  Solving for p_rgh, Initial residual = 5.48983e-10, Final residual = 2.02461e-28, No Iterations 1
PIMPLE: iteration 3
DILUPBiCGStab:  Solving for alpha.water, Initial residual = 0.181818, Final residual = 5.04647e-18, No Iterations 1
Phase-1 volume fraction = 1  Min(alpha.water) = 1  Max(alpha.water) = 1
MULES: Correcting alpha.water
MULES: Correcting alpha.water
Phase-1 volume fraction = 1  Min(alpha.water) = 1  Max(alpha.water) = 1
DILUPBiCGStab:  Solving for T, Initial residual = 1.06404e-07, Final residual = 1.92085e-24, No Iterations 1
DILUPBiCGStab:  Solving for p_rgh, Initial residual = 1.58198e-15, Final residual = 1.58198e-15, No Iterations 0
ExecutionTime = 0.12 s  ClockTime = 0 s

Courant Number mean: 4.56668e-09 max: 1.53275e-06
Interface Courant Number mean: 0 max: 0
deltaT = 1.28377e-08
Time = 7.10316e-08

PIMPLE: iteration 1
DILUPBiCGStab:  Solving for alpha.water, Initial residual = 0, Final residual = 0, No Iterations 0
Phase-1 volume fraction = 1  Min(alpha.water) = 1  Max(alpha.water) = 1
MULES: Correcting alpha.water
MULES: Correcting alpha.water
Phase-1 volume fraction = 1  Min(alpha.water) = 1  Max(alpha.water) = 1
DILUPBiCGStab:  Solving for T, Initial residual = 0.133338, Final residual = 2.68133e-17, No Iterations 1
DILUPBiCGStab:  Solving for p_rgh, Initial residual = 2.11348e-06, Final residual = 3.05164e-22, No Iterations 1
PIMPLE: iteration 2
DILUPBiCGStab:  Solving for alpha.water, Initial residual = 0.0588235, Final residual = 9.28072e-32, No Iterations 1
Phase-1 volume fraction = 1  Min(alpha.water) = 1  Max(alpha.water) = 1
MULES: Correcting alpha.water
MULES: Correcting alpha.water
Phase-1 volume fraction = 1  Min(alpha.water) = 1  Max(alpha.water) = 1
DILUPBiCGStab:  Solving for T, Initial residual = 0.0406597, Final residual = 2.25665e-18, No Iterations 1
DILUPBiCGStab:  Solving for p_rgh, Initial residual = 7.89486e-10, Final residual = 4.98996e-26, No Iterations 1
PIMPLE: iteration 3
DILUPBiCGStab:  Solving for alpha.water, Initial residual = 0.125, Final residual = 2.52435e-29, No Iterations 1
Phase-1 volume fraction = 1  Min(alpha.water) = 1  Max(alpha.water) = 1
MULES: Correcting alpha.water
MULES: Correcting alpha.water
Phase-1 volume fraction = 1  Min(alpha.water) = 1  Max(alpha.water) = 1
DILUPBiCGStab:  Solving for T, Initial residual = 6.87593e-08, Final residual = 1.98635e-24, No Iterations 1
DILUPBiCGStab:  Solving for p_rgh, Initial residual = 3.20898e-15, Final residual = 3.20898e-15, No Iterations 0
ExecutionTime = 0.13 s  ClockTime = 0 s

Courant Number mean: 6.68185e-09 max: 2.24023e-06
Interface Courant Number mean: 0 max: 0
deltaT = 1.54045e-08
Time = 8.6436e-08

PIMPLE: iteration 1
DILUPBiCGStab:  Solving for alpha.water, Initial residual = 0.125, Final residual = 6.93889e-18, No Iterations 1
Phase-1 volume fraction = 1  Min(alpha.water) = 1  Max(alpha.water) = 1
MULES: Correcting alpha.water
MULES: Correcting alpha.water
Phase-1 volume fraction = 1  Min(alpha.water) = 1  Max(alpha.water) = 1
DILUPBiCGStab:  Solving for T, Initial residual = 0.131682, Final residual = 9.97536e-22, No Iterations 1
DILUPBiCGStab:  Solving for p_rgh, Initial residual = 3.07654e-06, Final residual = 6.11479e-23, No Iterations 1
PIMPLE: iteration 2
DILUPBiCGStab:  Solving for alpha.water, Initial residual = 0.125, Final residual = 2.58494e-26, No Iterations 1
Phase-1 volume fraction = 1  Min(alpha.water) = 1  Max(alpha.water) = 1
MULES: Correcting alpha.water
MULES: Correcting alpha.water
Phase-1 volume fraction = 1  Min(alpha.water) = 1  Max(alpha.water) = 1
DILUPBiCGStab:  Solving for T, Initial residual = 0.0402816, Final residual = 3.6759e-20, No Iterations 1
DILUPBiCGStab:  Solving for p_rgh, Initial residual = 1.13486e-09, Final residual = 1.19665e-25, No Iterations 1
PIMPLE: iteration 3
DILUPBiCGStab:  Solving for alpha.water, Initial residual = 0.0666667, Final residual = 2.62954e-32, No Iterations 1
Phase-1 volume fraction = 1  Min(alpha.water) = 1  Max(alpha.water) = 1
MULES: Correcting alpha.water
MULES: Correcting alpha.water
Phase-1 volume fraction = 1  Min(alpha.water) = 1  Max(alpha.water) = 1
DILUPBiCGStab:  Solving for T, Initial residual = 8.20982e-08, Final residual = 9.5276e-26, No Iterations 1
DILUPBiCGStab:  Solving for p_rgh, Initial residual = 6.11275e-15, Final residual = 6.11275e-15, No Iterations 0
ExecutionTime = 0.13 s  ClockTime = 0 s

Courant Number mean: 9.74776e-09 max: 3.26459e-06
Interface Courant Number mean: 0 max: 0
deltaT = 1.84854e-08
Time = 1.04921e-07

PIMPLE: iteration 1
DILUPBiCGStab:  Solving for alpha.water, Initial residual = 0.0322581, Final residual = 1.72436e-52, No Iterations 1
Phase-1 volume fraction = 1  Min(alpha.water) = 1  Max(alpha.water) = 1
MULES: Correcting alpha.water
MULES: Correcting alpha.water
Phase-1 volume fraction = 1  Min(alpha.water) = 1  Max(alpha.water) = 1
DILUPBiCGStab:  Solving for T, Initial residual = 0.130308, Final residual = 2.25253e-17, No Iterations 1
DILUPBiCGStab:  Solving for p_rgh, Initial residual = 4.46824e-06, Final residual = 3.66407e-22, No Iterations 1
PIMPLE: iteration 2
DILUPBiCGStab:  Solving for alpha.water, Initial residual = 0.0967742, Final residual = 1.79068e-17, No Iterations 1
Phase-1 volume fraction = 1  Min(alpha.water) = 1  Max(alpha.water) = 1
MULES: Correcting alpha.water
MULES: Correcting alpha.water
Phase-1 volume fraction = 1  Min(alpha.water) = 1  Max(alpha.water) = 1
DILUPBiCGStab:  Solving for T, Initial residual = 0.0399661, Final residual = 7.81768e-18, No Iterations 1
DILUPBiCGStab:  Solving for p_rgh, Initial residual = 1.63073e-09, Final residual = 1.43496e-25, No Iterations 1
PIMPLE: iteration 3
DILUPBiCGStab:  Solving for alpha.water, Initial residual = 0.1875, Final residual = 1.32349e-23, No Iterations 1
Phase-1 volume fraction = 1  Min(alpha.water) = 1  Max(alpha.water) = 1
MULES: Correcting alpha.water
MULES: Correcting alpha.water
Phase-1 volume fraction = 1  Min(alpha.water) = 1  Max(alpha.water) = 1
DILUPBiCGStab:  Solving for T, Initial residual = 1.46111e-07, Final residual = 9.40511e-24, No Iterations 1
DILUPBiCGStab:  Solving for p_rgh, Initial residual = 1.25533e-14, Final residual = 1.25533e-14, No Iterations 0
ExecutionTime = 0.14 s  ClockTime = 0 s

Courant Number mean: 1.41874e-08 max: 4.74594e-06
Interface Courant Number mean: 0 max: 0
deltaT = 2.21841e-08
Time = 1.27106e-07

PIMPLE: iteration 1
DILUPBiCGStab:  Solving for alpha.water, Initial residual = 0.142857, Final residual = 5.28678e-18, No Iterations 1
Phase-1 volume fraction = 1  Min(alpha.water) = 1  Max(alpha.water) = 1
MULES: Correcting alpha.water
MULES: Correcting alpha.water
Phase-1 volume fraction = 1  Min(alpha.water) = 1  Max(alpha.water) = 1
DILUPBiCGStab:  Solving for T, Initial residual = 0.129145, Final residual = 1.09575e-17, No Iterations 1
DILUPBiCGStab:  Solving for p_rgh, Initial residual = 6.47659e-06, Final residual = 8.82971e-23, No Iterations 1
PIMPLE: iteration 2
DILUPBiCGStab:  Solving for alpha.water, Initial residual = 0.2, Final residual = 8.88185e-18, No Iterations 1
Phase-1 volume fraction = 1  Min(alpha.water) = 1  Max(alpha.water) = 1
MULES: Correcting alpha.water
MULES: Correcting alpha.water
Phase-1 volume fraction = 1  Min(alpha.water) = 1  Max(alpha.water) = 1
DILUPBiCGStab:  Solving for T, Initial residual = 0.0396956, Final residual = 3.16182e-18, No Iterations 1
DILUPBiCGStab:  Solving for p_rgh, Initial residual = 2.34184e-09, Final residual = 5.1553e-25, No Iterations 1
PIMPLE: iteration 3
DILUPBiCGStab:  Solving for alpha.water, Initial residual = 0.181818, Final residual = 1.93259e-23, No Iterations 1
Phase-1 volume fraction = 1  Min(alpha.water) = 1  Max(alpha.water) = 1
MULES: Correcting alpha.water
MULES: Correcting alpha.water
Phase-1 volume fraction = 1  Min(alpha.water) = 1  Max(alpha.water) = 1
DILUPBiCGStab:  Solving for T, Initial residual = 1.93343e-07, Final residual = 1.4082e-23, No Iterations 1
DILUPBiCGStab:  Solving for p_rgh, Initial residual = 2.59124e-14, Final residual = 2.59124e-14, No Iterations 0
ExecutionTime = 0.15 s  ClockTime = 0 s

Courant Number mean: 2.06103e-08 max: 6.88525e-06
Interface Courant Number mean: 0 max: 0
deltaT = 2.66186e-08
Time = 1.53724e-07

PIMPLE: iteration 1
DILUPBiCGStab:  Solving for alpha.water, Initial residual = 0.142857, Final residual = 7.16667e-38, No Iterations 1
Phase-1 volume fraction = 1  Min(alpha.water) = 1  Max(alpha.water) = 1
MULES: Correcting alpha.water
MULES: Correcting alpha.water
Phase-1 volume fraction = 1  Min(alpha.water) = 1  Max(alpha.water) = 1
DILUPBiCGStab:  Solving for T, Initial residual = 0.128093, Final residual = 9.21871e-18, No Iterations 1
DILUPBiCGStab:  Solving for p_rgh, Initial residual = 9.36731e-06, Final residual = 1.26912e-21, No Iterations 1
PIMPLE: iteration 2
DILUPBiCGStab:  Solving for alpha.water, Initial residual = 0.181818, Final residual = 5.04647e-18, No Iterations 1
Phase-1 volume fraction = 1  Min(alpha.water) = 1  Max(alpha.water) = 1
MULES: Correcting alpha.water
MULES: Correcting alpha.water
Phase-1 volume fraction = 1  Min(alpha.water) = 1  Max(alpha.water) = 1
DILUPBiCGStab:  Solving for T, Initial residual = 0.0394437, Final residual = 1.40075e-18, No Iterations 1
DILUPBiCGStab:  Solving for p_rgh, Initial residual = 3.3644e-09, Final residual = 4.14271e-25, No Iterations 1
PIMPLE: iteration 3
DILUPBiCGStab:  Solving for alpha.water, Initial residual = 0.0526316, Final residual = 3.38655e-87, No Iterations 1
Phase-1 volume fraction = 1  Min(alpha.water) = 1  Max(alpha.water) = 1
MULES: Correcting alpha.water
MULES: Correcting alpha.water
Phase-1 volume fraction = 1  Min(alpha.water) = 1  Max(alpha.water) = 1
DILUPBiCGStab:  Solving for T, Initial residual = 2.51514e-07, Final residual = 3.62098e-23, No Iterations 1
DILUPBiCGStab:  Solving for p_rgh, Initial residual = 5.36602e-14, Final residual = 5.36602e-14, No Iterations 0
ExecutionTime = 0.15 s  ClockTime = 0 s

Courant Number mean: 2.98862e-08 max: 9.9673e-06
Interface Courant Number mean: 0 max: 0
deltaT = 3.19406e-08
Time = 1.85665e-07

PIMPLE: iteration 1
DILUPBiCGStab:  Solving for alpha.water, Initial residual = 0.121951, Final residual = 5.41572e-18, No Iterations 1
Phase-1 volume fraction = 1  Min(alpha.water) = 1  Max(alpha.water) = 1
MULES: Correcting alpha.water
MULES: Correcting alpha.water
Phase-1 volume fraction = 1  Min(alpha.water) = 1  Max(alpha.water) = 1
DILUPBiCGStab:  Solving for T, Initial residual = 0.127113, Final residual = 2.7955e-18, No Iterations 1
DILUPBiCGStab:  Solving for p_rgh, Initial residual = 1.35215e-05, Final residual = 2.55753e-22, No Iterations 1
PIMPLE: iteration 2
DILUPBiCGStab:  Solving for alpha.water, Initial residual = 0.191489, Final residual = 1.88974e-17, No Iterations 1
Phase-1 volume fraction = 1  Min(alpha.water) = 1  Max(alpha.water) = 1
MULES: Correcting alpha.water
MULES: Correcting alpha.water
Phase-1 volume fraction = 1  Min(alpha.water) = 1  Max(alpha.water) = 1
DILUPBiCGStab:  Solving for T, Initial residual = 0.039205, Final residual = 1.52693e-17, No Iterations 1
DILUPBiCGStab:  Solving for p_rgh, Initial residual = 4.83012e-09, Final residual = 9.95209e-25, No Iterations 1
PIMPLE: iteration 3
DILUPBiCGStab:  Solving for alpha.water, Initial residual = 0.1, Final residual = 2.77556e-18, No Iterations 1
Phase-1 volume fraction = 1  Min(alpha.water) = 1  Max(alpha.water) = 1
MULES: Correcting alpha.water
MULES: Correcting alpha.water
Phase-1 volume fraction = 1  Min(alpha.water) = 1  Max(alpha.water) = 1
DILUPBiCGStab:  Solving for T, Initial residual = 3.64975e-07, Final residual = 2.77113e-23, No Iterations 1
DILUPBiCGStab:  Solving for p_rgh, Initial residual = 1.11819e-13, Final residual = 1.11819e-13, No Iterations 0
ExecutionTime = 0.16 s  ClockTime = 0 s

Courant Number mean: 4.32764e-08 max: 1.44014e-05
Interface Courant Number mean: 0 max: 0
deltaT = 3.83312e-08
Time = 2.23996e-07

PIMPLE: iteration 1
DILUPBiCGStab:  Solving for alpha.water, Initial residual = 0.176471, Final residual = 9.79618e-18, No Iterations 1
Phase-1 volume fraction = 1  Min(alpha.water) = 1  Max(alpha.water) = 1
MULES: Correcting alpha.water
MULES: Correcting alpha.water
Phase-1 volume fraction = 1  Min(alpha.water) = 1  Max(alpha.water) = 1
DILUPBiCGStab:  Solving for T, Initial residual = 0.126146, Final residual = 2.08974e-17, No Iterations 1
DILUPBiCGStab:  Solving for p_rgh, Initial residual = 1.94779e-05, Final residual = 6.19203e-22, No Iterations 1
PIMPLE: iteration 2
DILUPBiCGStab:  Solving for alpha.water, Initial residual = 0.294118, Final residual = 1.6327e-17, No Iterations 1
Phase-1 volume fraction = 1  Min(alpha.water) = 1  Max(alpha.water) = 1
MULES: Correcting alpha.water
MULES: Correcting alpha.water
Phase-1 volume fraction = 1  Min(alpha.water) = 1  Max(alpha.water) = 1
DILUPBiCGStab:  Solving for T, Initial residual = 0.0389663, Final residual = 2.32162e-18, No Iterations 1
DILUPBiCGStab:  Solving for p_rgh, Initial residual = 6.92807e-09, Final residual = 1.04712e-26, No Iterations 1
PIMPLE: iteration 3
DILUPBiCGStab:  Solving for alpha.water, Initial residual = 0.0769231, Final residual = 6.78712e-25, No Iterations 1
Phase-1 volume fraction = 1  Min(alpha.water) = 1  Max(alpha.water) = 1
MULES: Correcting alpha.water
MULES: Correcting alpha.water
Phase-1 volume fraction = 1  Min(alpha.water) = 1  Max(alpha.water) = 1
DILUPBiCGStab:  Solving for T, Initial residual = 5.45349e-07, Final residual = 1.65264e-23, No Iterations 1
DILUPBiCGStab:  Solving for p_rgh, Initial residual = 2.32806e-13, Final residual = 2.32806e-13, No Iterations 0
ExecutionTime = 0.17 s  ClockTime = 0 s

Courant Number mean: 6.2596e-08 max: 2.07684e-05
Interface Courant Number mean: 0 max: 0
deltaT = 4.60009e-08
Time = 2.69997e-07

PIMPLE: iteration 1
DILUPBiCGStab:  Solving for alpha.water, Initial residual = 0.047619, Final residual = 6.30271e-25, No Iterations 1
Phase-1 volume fraction = 1  Min(alpha.water) = 1  Max(alpha.water) = 1
MULES: Correcting alpha.water
MULES: Correcting alpha.water
Phase-1 volume fraction = 1  Min(alpha.water) = 1  Max(alpha.water) = 1
DILUPBiCGStab:  Solving for T, Initial residual = 0.125111, Final residual = 1.39759e-17, No Iterations 1
DILUPBiCGStab:  Solving for p_rgh, Initial residual = 2.79861e-05, Final residual = 4.38618e-21, No Iterations 1
PIMPLE: iteration 2
DILUPBiCGStab:  Solving for alpha.water, Initial residual = 0.116279, Final residual = 5.73304e-34, No Iterations 1
Phase-1 volume fraction = 1  Min(alpha.water) = 1  Max(alpha.water) = 1
MULES: Correcting alpha.water
MULES: Correcting alpha.water
Phase-1 volume fraction = 1  Min(alpha.water) = 1  Max(alpha.water) = 1
DILUPBiCGStab:  Solving for T, Initial residual = 0.0387038, Final residual = 5.31197e-18, No Iterations 1
DILUPBiCGStab:  Solving for p_rgh, Initial residual = 9.91994e-09, Final residual = 7.39727e-25, No Iterations 1
PIMPLE: iteration 3
DILUPBiCGStab:  Solving for alpha.water, Initial residual = 0.0869565, Final residual = 7.24058e-18, No Iterations 1
Phase-1 volume fraction = 1  Min(alpha.water) = 1  Max(alpha.water) = 1
MULES: Correcting alpha.water
MULES: Correcting alpha.water
Phase-1 volume fraction = 1  Min(alpha.water) = 1  Max(alpha.water) = 1
DILUPBiCGStab:  Solving for T, Initial residual = 7.99896e-07, Final residual = 6.83127e-23, No Iterations 1
DILUPBiCGStab:  Solving for p_rgh, Initial residual = 4.84595e-13, Final residual = 4.84595e-13, No Iterations 0
ExecutionTime = 0.18 s  ClockTime = 0 s

Courant Number mean: 9.04391e-08 max: 2.98817e-05
Interface Courant Number mean: 0 max: 0
deltaT = 5.51909e-08
Time = 3.25188e-07

PIMPLE: iteration 1
DILUPBiCGStab:  Solving for alpha.water, Initial residual = 0.0980392, Final residual = 2.17704e-18, No Iterations 1
Phase-1 volume fraction = 1  Min(alpha.water) = 1  Max(alpha.water) = 1
MULES: Correcting alpha.water
MULES: Correcting alpha.water
Phase-1 volume fraction = 1  Min(alpha.water) = 1  Max(alpha.water) = 1
DILUPBiCGStab:  Solving for T, Initial residual = 0.123885, Final residual = 1.47256e-17, No Iterations 1
DILUPBiCGStab:  Solving for p_rgh, Initial residual = 4.00669e-05, Final residual = 9.15589e-22, No Iterations 1
PIMPLE: iteration 2
DILUPBiCGStab:  Solving for alpha.water, Initial residual = 0.22449, Final residual = 1.13288e-17, No Iterations 1
Phase-1 volume fraction = 1  Min(alpha.water) = 1  Max(alpha.water) = 1
MULES: Correcting alpha.water
MULES: Correcting alpha.water
Phase-1 volume fraction = 1  Min(alpha.water) = 1  Max(alpha.water) = 1
DILUPBiCGStab:  Solving for T, Initial residual = 0.038383, Final residual = 2.90597e-18, No Iterations 1
DILUPBiCGStab:  Solving for p_rgh, Initial residual = 1.41603e-08, Final residual = 9.21346e-25, No Iterations 1
PIMPLE: iteration 3
DILUPBiCGStab:  Solving for alpha.water, Initial residual = 0.130435, Final residual = 2.41382e-18, No Iterations 1
Phase-1 volume fraction = 1  Min(alpha.water) = 1  Max(alpha.water) = 1
MULES: Correcting alpha.water
MULES: Correcting alpha.water
Phase-1 volume fraction = 1  Min(alpha.water) = 1  Max(alpha.water) = 1
DILUPBiCGStab:  Solving for T, Initial residual = 1.18233e-06, Final residual = 1.75324e-23, No Iterations 1
DILUPBiCGStab:  Solving for p_rgh, Initial residual = 1.00689e-12, Final residual = 1.00689e-12, No Iterations 0
ExecutionTime = 0.18 s  ClockTime = 0 s

Courant Number mean: 1.30486e-07 max: 4.28603e-05
Interface Courant Number mean: 0 max: 0
deltaT = 6.62291e-08
Time = 3.91417e-07

PIMPLE: iteration 1
DILUPBiCGStab:  Solving for alpha.water, Initial residual = 0.0833333, Final residual = 4.626e-18, No Iterations 1
Phase-1 volume fraction = 1  Min(alpha.water) = 1  Max(alpha.water) = 1
MULES: Correcting alpha.water
MULES: Correcting alpha.water
Phase-1 volume fraction = 1  Min(alpha.water) = 1  Max(alpha.water) = 1
DILUPBiCGStab:  Solving for T, Initial residual = 0.122391, Final residual = 1.97494e-17, No Iterations 1
DILUPBiCGStab:  Solving for p_rgh, Initial residual = 5.71262e-05, Final residual = 7.48679e-21, No Iterations 1
PIMPLE: iteration 2
DILUPBiCGStab:  Solving for alpha.water, Initial residual = 0.0816326, Final residual = 4.53152e-18, No Iterations 1
Phase-1 volume fraction = 1  Min(alpha.water) = 1  Max(alpha.water) = 1
MULES: Correcting alpha.water
MULES: Correcting alpha.water
Phase-1 volume fraction = 1  Min(alpha.water) = 1  Max(alpha.water) = 1
DILUPBiCGStab:  Solving for T, Initial residual = 0.037984, Final residual = 2.66097e-18, No Iterations 1
DILUPBiCGStab:  Solving for p_rgh, Initial residual = 2.01526e-08, Final residual = 3.15517e-24, No Iterations 1
PIMPLE: iteration 3
DILUPBiCGStab:  Solving for alpha.water, Initial residual = 0.0851064, Final residual = 7.08653e-18, No Iterations 1
Phase-1 volume fraction = 1  Min(alpha.water) = 1  Max(alpha.water) = 1
MULES: Correcting alpha.water
MULES: Correcting alpha.water
Phase-1 volume fraction = 1  Min(alpha.water) = 1  Max(alpha.water) = 1
DILUPBiCGStab:  Solving for T, Initial residual = 1.76894e-06, Final residual = 1.33441e-22, No Iterations 1
DILUPBiCGStab:  Solving for p_rgh, Initial residual = 2.08223e-12, Final residual = 2.08223e-12, No Iterations 0
ExecutionTime = 0.19 s  ClockTime = 0 s

Courant Number mean: 1.88092e-07 max: 6.12662e-05
Interface Courant Number mean: 0 max: 0
deltaT = 7.94961e-08
Time = 4.70913e-07

PIMPLE: iteration 1
DILUPBiCGStab:  Solving for alpha.water, Initial residual = 0.0833333, Final residual = 1.54216e-18, No Iterations 1
Phase-1 volume fraction = 1  Min(alpha.water) = 1  Max(alpha.water) = 1
MULES: Correcting alpha.water
MULES: Correcting alpha.water
Phase-1 volume fraction = 1  Min(alpha.water) = 1  Max(alpha.water) = 1
DILUPBiCGStab:  Solving for T, Initial residual = 0.120476, Final residual = 1.95249e-17, No Iterations 1
DILUPBiCGStab:  Solving for p_rgh, Initial residual = 8.09974e-05, Final residual = 9.84753e-23, No Iterations 1
PIMPLE: iteration 2
DILUPBiCGStab:  Solving for alpha.water, Initial residual = 0.126761, Final residual = 3.12739e-18, No Iterations 1
Phase-1 volume fraction = 1  Min(alpha.water) = 1  Max(alpha.water) = 1
MULES: Correcting alpha.water
MULES: Correcting alpha.water
Phase-1 volume fraction = 1  Min(alpha.water) = 1  Max(alpha.water) = 1
DILUPBiCGStab:  Solving for T, Initial residual = 0.037468, Final residual = 2.03884e-18, No Iterations 1
DILUPBiCGStab:  Solving for p_rgh, Initial residual = 2.85567e-08, Final residual = 5.04019e-24, No Iterations 1
PIMPLE: iteration 3
DILUPBiCGStab:  Solving for alpha.water, Initial residual = 0.150685, Final residual = 3.04171e-18, No Iterations 1
Phase-1 volume fraction = 1  Min(alpha.water) = 1  Max(alpha.water) = 1
MULES: Correcting alpha.water
MULES: Correcting alpha.water
Phase-1 volume fraction = 1  Min(alpha.water) = 1  Max(alpha.water) = 1
DILUPBiCGStab:  Solving for T, Initial residual = 2.66436e-06, Final residual = 4.97576e-22, No Iterations 1
DILUPBiCGStab:  Solving for p_rgh, Initial residual = 4.26618e-12, Final residual = 4.26618e-12, No Iterations 0
ExecutionTime = 0.2 s  ClockTime = 0 s

Courant Number mean: 2.70905e-07 max: 8.71876e-05
Interface Courant Number mean: 0 max: 0
deltaT = 9.54258e-08
Time = 5.66339e-07

PIMPLE: iteration 1
DILUPBiCGStab:  Solving for alpha.water, Initial residual = 0.1875, Final residual = 5.20459e-18, No Iterations 1
Phase-1 volume fraction = 1  Min(alpha.water) = 1  Max(alpha.water) = 1
MULES: Correcting alpha.water
MULES: Correcting alpha.water
Phase-1 volume fraction = 1  Min(alpha.water) = 1  Max(alpha.water) = 1
DILUPBiCGStab:  Solving for T, Initial residual = 0.117902, Final residual = 1.09996e-19, No Iterations 1
DILUPBiCGStab:  Solving for p_rgh, Initial residual = 0.00011392, Final residual = 1.88667e-20, No Iterations 1
PIMPLE: iteration 2
DILUPBiCGStab:  Solving for alpha.water, Initial residual = 0.2, Final residual = 4.03742e-18, No Iterations 1
Phase-1 volume fraction = 1  Min(alpha.water) = 1  Max(alpha.water) = 1
MULES: Correcting alpha.water
MULES: Correcting alpha.water
Phase-1 volume fraction = 1  Min(alpha.water) = 1  Max(alpha.water) = 1
DILUPBiCGStab:  Solving for T, Initial residual = 0.036771, Final residual = 9.00936e-19, No Iterations 1
DILUPBiCGStab:  Solving for p_rgh, Initial residual = 4.01903e-08, Final residual = 1.93955e-24, No Iterations 1
PIMPLE: iteration 3
DILUPBiCGStab:  Solving for alpha.water, Initial residual = 0.25, Final residual = 1.18952e-17, No Iterations 1
Phase-1 volume fraction = 1  Min(alpha.water) = 1  Max(alpha.water) = 1
MULES: Correcting alpha.water
MULES: Correcting alpha.water
Phase-1 volume fraction = 1  Min(alpha.water) = 1  Max(alpha.water) = 1
DILUPBiCGStab:  Solving for T, Initial residual = 4.01494e-06, Final residual = 2.19658e-22, No Iterations 1
DILUPBiCGStab:  Solving for p_rgh, Initial residual = 8.5972e-12, Final residual = 8.5972e-12, No Iterations 0
ExecutionTime = 0.21 s  ClockTime = 0 s

Courant Number mean: 3.89747e-07 max: 0.000123295
Interface Courant Number mean: 0 max: 0
deltaT = 1.14555e-07
Time = 6.80894e-07

PIMPLE: iteration 1
DILUPBiCGStab:  Solving for alpha.water, Initial residual = 0.0666667, Final residual = 1.85037e-18, No Iterations 1
Phase-1 volume fraction = 1  Min(alpha.water) = 1  Max(alpha.water) = 1
MULES: Correcting alpha.water
MULES: Correcting alpha.water
Phase-1 volume fraction = 1  Min(alpha.water) = 1  Max(alpha.water) = 1
DILUPBiCGStab:  Solving for T, Initial residual = 0.114404, Final residual = 9.62164e-18, No Iterations 1
DILUPBiCGStab:  Solving for p_rgh, Initial residual = 0.000158416, Final residual = 1.91377e-20, No Iterations 1
PIMPLE: iteration 2
DILUPBiCGStab:  Solving for alpha.water, Initial residual = 0.186441, Final residual = 3.76347e-18, No Iterations 1
Phase-1 volume fraction = 1  Min(alpha.water) = 1  Max(alpha.water) = 1
MULES: Correcting alpha.water
MULES: Correcting alpha.water
Phase-1 volume fraction = 1  Min(alpha.water) = 1  Max(alpha.water) = 1
DILUPBiCGStab:  Solving for T, Initial residual = 0.035821, Final residual = 3.95807e-18, No Iterations 1
DILUPBiCGStab:  Solving for p_rgh, Initial residual = 5.60408e-08, Final residual = 2.95088e-26, No Iterations 1
PIMPLE: iteration 3
DILUPBiCGStab:  Solving for alpha.water, Initial residual = 0.0545454, Final residual = 2.4641e-22, No Iterations 1
Phase-1 volume fraction = 1  Min(alpha.water) = 1  Max(alpha.water) = 1
MULES: Correcting alpha.water
MULES: Correcting alpha.water
Phase-1 volume fraction = 1  Min(alpha.water) = 1  Max(alpha.water) = 1
DILUPBiCGStab:  Solving for T, Initial residual = 5.98588e-06, Final residual = 3.98247e-22, No Iterations 1
DILUPBiCGStab:  Solving for p_rgh, Initial residual = 1.67785e-11, Final residual = 1.4653e-28, No Iterations 1
ExecutionTime = 0.21 s  ClockTime = 0 s

Courant Number mean: 5.60108e-07 max: 0.000172868
Interface Courant Number mean: 0 max: 0
deltaT = 1.37561e-07
Time = 8.18455e-07

PIMPLE: iteration 1
DILUPBiCGStab:  Solving for alpha.water, Initial residual = 0.0588235, Final residual = 2.17691e-18, No Iterations 1
Phase-1 volume fraction = 1  Min(alpha.water) = 1  Max(alpha.water) = 1
MULES: Correcting alpha.water
MULES: Correcting alpha.water
Phase-1 volume fraction = 1  Min(alpha.water) = 1  Max(alpha.water) = 1
DILUPBiCGStab:  Solving for T, Initial residual = 0.109674, Final residual = 1.69139e-17, No Iterations 1
DILUPBiCGStab:  Solving for p_rgh, Initial residual = 0.000216857, Final residual = 1.81399e-20, No Iterations 1
PIMPLE: iteration 2
DILUPBiCGStab:  Solving for alpha.water, Initial residual = 0.0947368, Final residual = 3.50597e-18, No Iterations 1
Phase-1 volume fraction = 1  Min(alpha.water) = 1  Max(alpha.water) = 1
MULES: Correcting alpha.water
MULES: Correcting alpha.water
Phase-1 volume fraction = 1  Min(alpha.water) = 1  Max(alpha.water) = 1
DILUPBiCGStab:  Solving for T, Initial residual = 0.0345353, Final residual = 6.8798e-19, No Iterations 1
DILUPBiCGStab:  Solving for p_rgh, Initial residual = 7.72418e-08, Final residual = 2.7378e-24, No Iterations 1
PIMPLE: iteration 3
DILUPBiCGStab:  Solving for alpha.water, Initial residual = 0.113402, Final residual = 9.15648e-18, No Iterations 1
Phase-1 volume fraction = 1  Min(alpha.water) = 1  Max(alpha.water) = 1
MULES: Correcting alpha.water
MULES: Correcting alpha.water
Phase-1 volume fraction = 1  Min(alpha.water) = 1  Max(alpha.water) = 1
DILUPBiCGStab:  Solving for T, Initial residual = 8.78883e-06, Final residual = 3.52469e-23, No Iterations 1
DILUPBiCGStab:  Solving for p_rgh, Initial residual = 3.05877e-11, Final residual = 6.76944e-27, No Iterations 1
ExecutionTime = 0.22 s  ClockTime = 0 s

Courant Number mean: 8.04394e-07 max: 0.000239655
Interface Courant Number mean: 0 max: 0
deltaT = 1.65028e-07
Time = 9.83482e-07

PIMPLE: iteration 1
DILUPBiCGStab:  Solving for alpha.water, Initial residual = 0.179487, Final residual = 7.11686e-18, No Iterations 1
Phase-1 volume fraction = 1  Min(alpha.water) = 1  Max(alpha.water) = 1
MULES: Correcting alpha.water
MULES: Correcting alpha.water
Phase-1 volume fraction = 1  Min(alpha.water) = 1  Max(alpha.water) = 1
DILUPBiCGStab:  Solving for T, Initial residual = 0.103235, Final residual = 1.31153e-17, No Iterations 1
DILUPBiCGStab:  Solving for p_rgh, Initial residual = 0.000289916, Final residual = 3.37754e-20, No Iterations 1
PIMPLE: iteration 2
DILUPBiCGStab:  Solving for alpha.water, Initial residual = 0.138889, Final residual = 3.08405e-18, No Iterations 1
Phase-1 volume fraction = 1  Min(alpha.water) = 1  Max(alpha.water) = 1
MULES: Correcting alpha.water
MULES: Correcting alpha.water
Phase-1 volume fraction = 1  Min(alpha.water) = 1  Max(alpha.water) = 1
DILUPBiCGStab:  Solving for T, Initial residual = 0.0327692, Final residual = 1.61607e-18, No Iterations 1
DILUPBiCGStab:  Solving for p_rgh, Initial residual = 1.04663e-07, Final residual = 1.02954e-23, No Iterations 1
PIMPLE: iteration 3
DILUPBiCGStab:  Solving for alpha.water, Initial residual = 0.12, Final residual = 1.4803e-18, No Iterations 1
Phase-1 volume fraction = 1  Min(alpha.water) = 1  Max(alpha.water) = 1
MULES: Correcting alpha.water
MULES: Correcting alpha.water
Phase-1 volume fraction = 1  Min(alpha.water) = 1  Max(alpha.water) = 1
DILUPBiCGStab:  Solving for T, Initial residual = 1.24114e-05, Final residual = 1.21807e-21, No Iterations 1
DILUPBiCGStab:  Solving for p_rgh, Initial residual = 4.89656e-11, Final residual = 3.92808e-27, No Iterations 1
ExecutionTime = 0.23 s  ClockTime = 0 s

Courant Number mean: 1.15331e-06 max: 0.000326837
Interface Courant Number mean: 0 max: 0
deltaT = 1.98033e-07
Time = 1.18152e-06

PIMPLE: iteration 1
DILUPBiCGStab:  Solving for alpha.water, Initial residual = 0.21875, Final residual = 2.08171e-17, No Iterations 1
Phase-1 volume fraction = 1  Min(alpha.water) = 1  Max(alpha.water) = 1
MULES: Correcting alpha.water
MULES: Correcting alpha.water
Phase-1 volume fraction = 1  Min(alpha.water) = 1  Max(alpha.water) = 1
DILUPBiCGStab:  Solving for T, Initial residual = 0.0949747, Final residual = 1.44039e-17, No Iterations 1
DILUPBiCGStab:  Solving for p_rgh, Initial residual = 0.0003758, Final residual = 2.28635e-20, No Iterations 1
PIMPLE: iteration 2
DILUPBiCGStab:  Solving for alpha.water, Initial residual = 0.283582, Final residual = 9.94229e-18, No Iterations 1
Phase-1 volume fraction = 1  Min(alpha.water) = 1  Max(alpha.water) = 1
MULES: Correcting alpha.water
MULES: Correcting alpha.water
Phase-1 volume fraction = 1  Min(alpha.water) = 1  Max(alpha.water) = 1
DILUPBiCGStab:  Solving for T, Initial residual = 0.0304339, Final residual = 2.64202e-19, No Iterations 1
DILUPBiCGStab:  Solving for p_rgh, Initial residual = 1.3955e-07, Final residual = 4.80652e-24, No Iterations 1
PIMPLE: iteration 3
DILUPBiCGStab:  Solving for alpha.water, Initial residual = 0.253731, Final residual = 1.15993e-17, No Iterations 1
Phase-1 volume fraction = 1  Min(alpha.water) = 1  Max(alpha.water) = 1
MULES: Correcting alpha.water
MULES: Correcting alpha.water
Phase-1 volume fraction = 1  Min(alpha.water) = 1  Max(alpha.water) = 1
DILUPBiCGStab:  Solving for T, Initial residual = 1.59637e-05, Final residual = 1.25482e-21, No Iterations 1
DILUPBiCGStab:  Solving for p_rgh, Initial residual = 6.16917e-11, Final residual = 1.24528e-27, No Iterations 1
ExecutionTime = 0.24 s  ClockTime = 0 s

Courant Number mean: 1.65441e-06 max: 0.000437169
Interface Courant Number mean: 0 max: 0
deltaT = 2.00037e-07
Time = 1.38155e-06

PIMPLE: iteration 1
DILUPBiCGStab:  Solving for alpha.water, Initial residual = 0.147059, Final residual = 1.63268e-18, No Iterations 1
Phase-1 volume fraction = 1  Min(alpha.water) = 1  Max(alpha.water) = 1
MULES: Correcting alpha.water
MULES: Correcting alpha.water
Phase-1 volume fraction = 1  Min(alpha.water) = 1  Max(alpha.water) = 1
DILUPBiCGStab:  Solving for T, Initial residual = 0.0725197, Final residual = 6.80968e-18, No Iterations 1
DILUPBiCGStab:  Solving for p_rgh, Initial residual = 0.000386165, Final residual = 8.39543e-20, No Iterations 1
PIMPLE: iteration 2
DILUPBiCGStab:  Solving for alpha.water, Initial residual = 0.178082, Final residual = 1.52252e-18, No Iterations 1
Phase-1 volume fraction = 1  Min(alpha.water) = 1  Max(alpha.water) = 1
MULES: Correcting alpha.water
MULES: Correcting alpha.water
Phase-1 volume fraction = 1  Min(alpha.water) = 1  Max(alpha.water) = 1
DILUPBiCGStab:  Solving for T, Initial residual = 0.0252089, Final residual = 1.1287e-18, No Iterations 1
DILUPBiCGStab:  Solving for p_rgh, Initial residual = 1.31534e-07, Final residual = 1.56456e-23, No Iterations 1
PIMPLE: iteration 3
DILUPBiCGStab:  Solving for alpha.water, Initial residual = 0.102564, Final residual = 8.68752e-23, No Iterations 1
Phase-1 volume fraction = 1  Min(alpha.water) = 1  Max(alpha.water) = 1
MULES: Correcting alpha.water
MULES: Correcting alpha.water
Phase-1 volume fraction = 1  Min(alpha.water) = 1  Max(alpha.water) = 1
DILUPBiCGStab:  Solving for T, Initial residual = 1.05257e-05, Final residual = 7.58213e-22, No Iterations 1
DILUPBiCGStab:  Solving for p_rgh, Initial residual = 4.47648e-11, Final residual = 2.79352e-27, No Iterations 1
ExecutionTime = 0.24 s  ClockTime = 0 s

Courant Number mean: 1.94827e-06 max: 0.000475613
Interface Courant Number mean: 0 max: 0
deltaT = 2.00037e-07
Time = 1.58159e-06

PIMPLE: iteration 1
DILUPBiCGStab:  Solving for alpha.water, Initial residual = 0.173913, Final residual = 1.08609e-17, No Iterations 1
Phase-1 volume fraction = 1  Min(alpha.water) = 1  Max(alpha.water) = 1
MULES: Correcting alpha.water
MULES: Correcting alpha.water
Phase-1 volume fraction = 1  Min(alpha.water) = 1  Max(alpha.water) = 1
DILUPBiCGStab:  Solving for T, Initial residual = 0.0588438, Final residual = 2.64098e-18, No Iterations 1
DILUPBiCGStab:  Solving for p_rgh, Initial residual = 0.000380864, Final residual = 6.8907e-20, No Iterations 1
PIMPLE: iteration 2
DILUPBiCGStab:  Solving for alpha.water, Initial residual = 0.2, Final residual = 8.07435e-18, No Iterations 1
Phase-1 volume fraction = 1  Min(alpha.water) = 1  Max(alpha.water) = 1
MULES: Correcting alpha.water
MULES: Correcting alpha.water
Phase-1 volume fraction = 1  Min(alpha.water) = 1  Max(alpha.water) = 1
DILUPBiCGStab:  Solving for T, Initial residual = 0.0202141, Final residual = 8.7684e-19, No Iterations 1
DILUPBiCGStab:  Solving for p_rgh, Initial residual = 1.23035e-07, Final residual = 3.05283e-23, No Iterations 1
PIMPLE: iteration 3
DILUPBiCGStab:  Solving for alpha.water, Initial residual = 0.119266, Final residual = 4.07471e-18, No Iterations 1
Phase-1 volume fraction = 1  Min(alpha.water) = 1  Max(alpha.water) = 1
MULES: Correcting alpha.water
MULES: Correcting alpha.water
Phase-1 volume fraction = 1  Min(alpha.water) = 1  Max(alpha.water) = 1
DILUPBiCGStab:  Solving for T, Initial residual = 7.4058e-06, Final residual = 7.10907e-22, No Iterations 1
DILUPBiCGStab:  Solving for p_rgh, Initial residual = 3.79319e-11, Final residual = 3.06034e-27, No Iterations 1
ExecutionTime = 0.26 s  ClockTime = 0 s

Courant Number mean: 2.22789e-06 max: 0.000499792
Interface Courant Number mean: 0 max: 0
deltaT = 2.00037e-07
Time = 1.78163e-06

PIMPLE: iteration 1
DILUPBiCGStab:  Solving for alpha.water, Initial residual = 0.128205, Final residual = 1.89783e-18, No Iterations 1
Phase-1 volume fraction = 1  Min(alpha.water) = 1  Max(alpha.water) = 1
MULES: Correcting alpha.water
MULES: Correcting alpha.water
Phase-1 volume fraction = 1  Min(alpha.water) = 1  Max(alpha.water) = 1
DILUPBiCGStab:  Solving for T, Initial residual = 0.0507935, Final residual = 4.92812e-18, No Iterations 1
DILUPBiCGStab:  Solving for p_rgh, Initial residual = 0.000367366, Final residual = 1.12477e-19, No Iterations 1
PIMPLE: iteration 2
DILUPBiCGStab:  Solving for alpha.water, Initial residual = 0.163934, Final residual = 5.46056e-18, No Iterations 1
Phase-1 volume fraction = 1  Min(alpha.water) = 1  Max(alpha.water) = 1
MULES: Correcting alpha.water
MULES: Correcting alpha.water
Phase-1 volume fraction = 1  Min(alpha.water) = 1  Max(alpha.water) = 1
DILUPBiCGStab:  Solving for T, Initial residual = 0.0143191, Final residual = 1.34487e-18, No Iterations 1
DILUPBiCGStab:  Solving for p_rgh, Initial residual = 1.16178e-07, Final residual = 1.92552e-23, No Iterations 1
PIMPLE: iteration 3
DILUPBiCGStab:  Solving for alpha.water, Initial residual = 0.111111, Final residual = 3.08496e-18, No Iterations 1
Phase-1 volume fraction = 1  Min(alpha.water) = 1  Max(alpha.water) = 1
MULES: Correcting alpha.water
MULES: Correcting alpha.water
Phase-1 volume fraction = 1  Min(alpha.water) = 1  Max(alpha.water) = 1
DILUPBiCGStab:  Solving for T, Initial residual = 4.30101e-06, Final residual = 1.27907e-22, No Iterations 1
DILUPBiCGStab:  Solving for p_rgh, Initial residual = 3.42153e-11, Final residual = 5.25239e-27, No Iterations 1
ExecutionTime = 0.26 s  ClockTime = 0 s

Courant Number mean: 2.51088e-06 max: 0.000515645
Interface Courant Number mean: 0 max: 0
deltaT = 2.00037e-07
Time = 1.98166e-06

PIMPLE: iteration 1
DILUPBiCGStab:  Solving for alpha.water, Initial residual = 0.0588235, Final residual = 2.79956e-18, No Iterations 1
Phase-1 volume fraction = 1  Min(alpha.water) = 1  Max(alpha.water) = 1
MULES: Correcting alpha.water
MULES: Correcting alpha.water
Phase-1 volume fraction = 1  Min(alpha.water) = 1  Max(alpha.water) = 1
DILUPBiCGStab:  Solving for T, Initial residual = 0.0420448, Final residual = 2.79023e-18, No Iterations 1
DILUPBiCGStab:  Solving for p_rgh, Initial residual = 0.000348391, Final residual = 1.39885e-20, No Iterations 1
PIMPLE: iteration 2
DILUPBiCGStab:  Solving for alpha.water, Initial residual = 0.0967742, Final residual = 8.95348e-19, No Iterations 1
Phase-1 volume fraction = 1  Min(alpha.water) = 1  Max(alpha.water) = 1
MULES: Correcting alpha.water
MULES: Correcting alpha.water
Phase-1 volume fraction = 1  Min(alpha.water) = 1  Max(alpha.water) = 1
DILUPBiCGStab:  Solving for T, Initial residual = 0.0143058, Final residual = 2.52284e-18, No Iterations 1
DILUPBiCGStab:  Solving for p_rgh, Initial residual = 1.32863e-07, Final residual = 9.48927e-24, No Iterations 1
PIMPLE: iteration 3
DILUPBiCGStab:  Solving for alpha.water, Initial residual = 0.11811, Final residual = 3.49762e-18, No Iterations 1
Phase-1 volume fraction = 1  Min(alpha.water) = 1  Max(alpha.water) = 1
MULES: Correcting alpha.water
MULES: Correcting alpha.water
Phase-1 volume fraction = 1  Min(alpha.water) = 1  Max(alpha.water) = 1
DILUPBiCGStab:  Solving for T, Initial residual = 4.37316e-06, Final residual = 2.76045e-22, No Iterations 1
DILUPBiCGStab:  Solving for p_rgh, Initial residual = 4.73637e-11, Final residual = 3.23021e-27, No Iterations 1
ExecutionTime = 0.27 s  ClockTime = 0 s

Courant Number mean: 2.79499e-06 max: 0.000524112
Interface Courant Number mean: 0 max: 0
deltaT = 2.00037e-07
Time = 2.1817e-06

PIMPLE: iteration 1
DILUPBiCGStab:  Solving for alpha.water, Initial residual = 0.107914, Final residual = 3.19528e-18, No Iterations 1
Phase-1 volume fraction = 1  Min(alpha.water) = 1  Max(alpha.water) = 1
MULES: Correcting alpha.water
MULES: Correcting alpha.water
Phase-1 volume fraction = 1  Min(alpha.water) = 1  Max(alpha.water) = 1
DILUPBiCGStab:  Solving for T, Initial residual = 0.0350158, Final residual = 3.07962e-18, No Iterations 1
DILUPBiCGStab:  Solving for p_rgh, Initial residual = 0.00032723, Final residual = 5.18311e-20, No Iterations 1
PIMPLE: iteration 2
DILUPBiCGStab:  Solving for alpha.water, Initial residual = 0.126761, Final residual = 5.47372e-18, No Iterations 1
Phase-1 volume fraction = 1  Min(alpha.water) = 1  Max(alpha.water) = 1
MULES: Correcting alpha.water
MULES: Correcting alpha.water
Phase-1 volume fraction = 1  Min(alpha.water) = 1  Max(alpha.water) = 1
DILUPBiCGStab:  Solving for T, Initial residual = 0.0135956, Final residual = 1.37754e-18, No Iterations 1
DILUPBiCGStab:  Solving for p_rgh, Initial residual = 1.12242e-07, Final residual = 1.10054e-24, No Iterations 1
PIMPLE: iteration 3
DILUPBiCGStab:  Solving for alpha.water, Initial residual = 0.0735294, Final residual = 4.86577e-26, No Iterations 1
Phase-1 volume fraction = 1  Min(alpha.water) = 1  Max(alpha.water) = 1
MULES: Correcting alpha.water
MULES: Correcting alpha.water
Phase-1 volume fraction = 1  Min(alpha.water) = 1  Max(alpha.water) = 1
DILUPBiCGStab:  Solving for T, Initial residual = 4.55638e-06, Final residual = 9.42825e-23, No Iterations 1
DILUPBiCGStab:  Solving for p_rgh, Initial residual = 4.14262e-11, Final residual = 2.17203e-27, No Iterations 1
ExecutionTime = 0.28 s  ClockTime = 0 s

Courant Number mean: 3.07513e-06 max: 0.000525935
Interface Courant Number mean: 0 max: 0
deltaT = 2.00037e-07
Time = 2.38174e-06

PIMPLE: iteration 1
DILUPBiCGStab:  Solving for alpha.water, Initial residual = 0.113924, Final residual = 4.91889e-18, No Iterations 1
Phase-1 volume fraction = 1  Min(alpha.water) = 1  Max(alpha.water) = 1
MULES: Correcting alpha.water
MULES: Correcting alpha.water
Phase-1 volume fraction = 1  Min(alpha.water) = 1  Max(alpha.water) = 1
DILUPBiCGStab:  Solving for T, Initial residual = 0.0353908, Final residual = 2.9354e-18, No Iterations 1
DILUPBiCGStab:  Solving for p_rgh, Initial residual = 0.00031618, Final residual = 3.23307e-20, No Iterations 1
PIMPLE: iteration 2
DILUPBiCGStab:  Solving for alpha.water, Initial residual = 0.158537, Final residual = 6.09402e-18, No Iterations 1
Phase-1 volume fraction = 1  Min(alpha.water) = 1  Max(alpha.water) = 1
MULES: Correcting alpha.water
MULES: Correcting alpha.water
Phase-1 volume fraction = 1  Min(alpha.water) = 1  Max(alpha.water) = 1
DILUPBiCGStab:  Solving for T, Initial residual = 0.0125979, Final residual = 7.88538e-19, No Iterations 1
DILUPBiCGStab:  Solving for p_rgh, Initial residual = 1.14395e-07, Final residual = 3.03444e-23, No Iterations 1
PIMPLE: iteration 3
DILUPBiCGStab:  Solving for alpha.water, Initial residual = 0.115151, Final residual = 6.05642e-18, No Iterations 1
Phase-1 volume fraction = 1  Min(alpha.water) = 1  Max(alpha.water) = 1
MULES: Correcting alpha.water
MULES: Correcting alpha.water
Phase-1 volume fraction = 1  Min(alpha.water) = 1  Max(alpha.water) = 1
DILUPBiCGStab:  Solving for T, Initial residual = 5.43137e-06, Final residual = 5.12864e-22, No Iterations 1
DILUPBiCGStab:  Solving for p_rgh, Initial residual = 4.58927e-11, Final residual = 1.77326e-27, No Iterations 1
ExecutionTime = 0.29 s  ClockTime = 0 s

Courant Number mean: 3.35436e-06 max: 0.000524606
Interface Courant Number mean: 0 max: 0
deltaT = 2.00037e-07
Time = 2.58178e-06

PIMPLE: iteration 1
DILUPBiCGStab:  Solving for alpha.water, Initial residual = 0.0659341, Final residual = 1.22032e-18, No Iterations 1
Phase-1 volume fraction = 1  Min(alpha.water) = 1  Max(alpha.water) = 1
MULES: Correcting alpha.water
MULES: Correcting alpha.water
Phase-1 volume fraction = 1  Min(alpha.water) = 1  Max(alpha.water) = 1
DILUPBiCGStab:  Solving for T, Initial residual = 0.036009, Final residual = 4.90474e-18, No Iterations 1
DILUPBiCGStab:  Solving for p_rgh, Initial residual = 0.000343423, Final residual = 2.15946e-20, No Iterations 1
PIMPLE: iteration 2
DILUPBiCGStab:  Solving for alpha.water, Initial residual = 0.0939226, Final residual = 6.13383e-19, No Iterations 1
Phase-1 volume fraction = 1  Min(alpha.water) = 1  Max(alpha.water) = 1
MULES: Correcting alpha.water
MULES: Correcting alpha.water
Phase-1 volume fraction = 1  Min(alpha.water) = 1  Max(alpha.water) = 1
DILUPBiCGStab:  Solving for T, Initial residual = 0.0119842, Final residual = 5.63432e-19, No Iterations 1
DILUPBiCGStab:  Solving for p_rgh, Initial residual = 1.20334e-07, Final residual = 6.33619e-24, No Iterations 1
PIMPLE: iteration 3
DILUPBiCGStab:  Solving for alpha.water, Initial residual = 0.101124, Final residual = 2.49519e-18, No Iterations 1
Phase-1 volume fraction = 1  Min(alpha.water) = 1  Max(alpha.water) = 1
MULES: Correcting alpha.water
MULES: Correcting alpha.water
Phase-1 volume fraction = 1  Min(alpha.water) = 1  Max(alpha.water) = 1
DILUPBiCGStab:  Solving for T, Initial residual = 5.35069e-06, Final residual = 1.49334e-22, No Iterations 1
DILUPBiCGStab:  Solving for p_rgh, Initial residual = 4.68787e-11, Final residual = 3.52038e-27, No Iterations 1
ExecutionTime = 0.29 s  ClockTime = 0 s

Courant Number mean: 3.63565e-06 max: 0.000522676
Interface Courant Number mean: 0 max: 0
deltaT = 2.00037e-07
Time = 2.78181e-06

PIMPLE: iteration 1
DILUPBiCGStab:  Solving for alpha.water, Initial residual = 0.0760869, Final residual = 1.81074e-18, No Iterations 1
Phase-1 volume fraction = 1  Min(alpha.water) = 1  Max(alpha.water) = 1
MULES: Correcting alpha.water
MULES: Correcting alpha.water
Phase-1 volume fraction = 1  Min(alpha.water) = 1  Max(alpha.water) = 1
DILUPBiCGStab:  Solving for T, Initial residual = 0.0346548, Final residual = 3.57531e-18, No Iterations 1
DILUPBiCGStab:  Solving for p_rgh, Initial residual = 0.000354137, Final residual = 5.87408e-20, No Iterations 1
PIMPLE: iteration 2
DILUPBiCGStab:  Solving for alpha.water, Initial residual = 0.100529, Final residual = 4.11194e-18, No Iterations 1
Phase-1 volume fraction = 1  Min(alpha.water) = 1  Max(alpha.water) = 1
MULES: Correcting alpha.water
MULES: Correcting alpha.water
Phase-1 volume fraction = 1  Min(alpha.water) = 1  Max(alpha.water) = 1
DILUPBiCGStab:  Solving for T, Initial residual = 0.0126791, Final residual = 1.13849e-18, No Iterations 1
DILUPBiCGStab:  Solving for p_rgh, Initial residual = 1.17448e-07, Final residual = 2.79983e-23, No Iterations 1
PIMPLE: iteration 3
DILUPBiCGStab:  Solving for alpha.water, Initial residual = 0.107527, Final residual = 7.16273e-18, No Iterations 1
Phase-1 volume fraction = 1  Min(alpha.water) = 1  Max(alpha.water) = 1
MULES: Correcting alpha.water
MULES: Correcting alpha.water
Phase-1 volume fraction = 1  Min(alpha.water) = 1  Max(alpha.water) = 1
DILUPBiCGStab:  Solving for T, Initial residual = 4.26536e-06, Final residual = 2.61865e-22, No Iterations 1
DILUPBiCGStab:  Solving for p_rgh, Initial residual = 4.18428e-11, Final residual = 5.16423e-27, No Iterations 1
ExecutionTime = 0.3 s  ClockTime = 0 s

Courant Number mean: 3.91865e-06 max: 0.000520683
Interface Courant Number mean: 0 max: 0
deltaT = 2.00037e-07
Time = 2.98185e-06

PIMPLE: iteration 1
DILUPBiCGStab:  Solving for alpha.water, Initial residual = 0.0638298, Final residual = 1.7717e-18, No Iterations 1
Phase-1 volume fraction = 1  Min(alpha.water) = 1  Max(alpha.water) = 1
MULES: Correcting alpha.water
MULES: Correcting alpha.water
Phase-1 volume fraction = 1  Min(alpha.water) = 1  Max(alpha.water) = 1
DILUPBiCGStab:  Solving for T, Initial residual = 0.0321916, Final residual = 2.44221e-18, No Iterations 1
DILUPBiCGStab:  Solving for p_rgh, Initial residual = 0.000353435, Final residual = 8.26903e-20, No Iterations 1
PIMPLE: iteration 2
DILUPBiCGStab:  Solving for alpha.water, Initial residual = 0.0947368, Final residual = 5.84402e-19, No Iterations 1
Phase-1 volume fraction = 1  Min(alpha.water) = 1  Max(alpha.water) = 1
MULES: Correcting alpha.water
MULES: Correcting alpha.water
Phase-1 volume fraction = 1  Min(alpha.water) = 1  Max(alpha.water) = 1
DILUPBiCGStab:  Solving for T, Initial residual = 0.0127342, Final residual = 5.54018e-19, No Iterations 1
DILUPBiCGStab:  Solving for p_rgh, Initial residual = 1.09812e-07, Final residual = 2.01919e-23, No Iterations 1
PIMPLE: iteration 3
DILUPBiCGStab:  Solving for alpha.water, Initial residual = 0.0802139, Final residual = 2.37511e-18, No Iterations 1
Phase-1 volume fraction = 1  Min(alpha.water) = 1  Max(alpha.water) = 1
MULES: Correcting alpha.water
MULES: Correcting alpha.water
Phase-1 volume fraction = 1  Min(alpha.water) = 1  Max(alpha.water) = 1
DILUPBiCGStab:  Solving for T, Initial residual = 4.56544e-06, Final residual = 3.00695e-22, No Iterations 1
DILUPBiCGStab:  Solving for p_rgh, Initial residual = 3.50944e-11, Final residual = 2.7204e-27, No Iterations 1
ExecutionTime = 0.3 s  ClockTime = 0 s

Courant Number mean: 4.20151e-06 max: 0.000518147
Interface Courant Number mean: 0 max: 0
deltaT = 2.00037e-07
Time = 3.18189e-06

PIMPLE: iteration 1
DILUPBiCGStab:  Solving for alpha.water, Initial residual = 0.0515464, Final residual = 3.43453e-18, No Iterations 1
Phase-1 volume fraction = 1  Min(alpha.water) = 1  Max(alpha.water) = 1
MULES: Correcting alpha.water
MULES: Correcting alpha.water
Phase-1 volume fraction = 1  Min(alpha.water) = 1  Max(alpha.water) = 1
DILUPBiCGStab:  Solving for T, Initial residual = 0.0293256, Final residual = 5.29025e-18, No Iterations 1
DILUPBiCGStab:  Solving for p_rgh, Initial residual = 0.00034598, Final residual = 4.578e-20, No Iterations 1
PIMPLE: iteration 2
DILUPBiCGStab:  Solving for alpha.water, Initial residual = 0.0990099, Final residual = 3.29773e-18, No Iterations 1
Phase-1 volume fraction = 1  Min(alpha.water) = 1  Max(alpha.water) = 1
MULES: Correcting alpha.water
MULES: Correcting alpha.water
Phase-1 volume fraction = 1  Min(alpha.water) = 1  Max(alpha.water) = 1
DILUPBiCGStab:  Solving for T, Initial residual = 0.0116401, Final residual = 9.45956e-19, No Iterations 1
DILUPBiCGStab:  Solving for p_rgh, Initial residual = 1.00425e-07, Final residual = 7.47344e-24, No Iterations 1
PIMPLE: iteration 3
DILUPBiCGStab:  Solving for alpha.water, Initial residual = 0.112195, Final residual = 1.62525e-18, No Iterations 1
Phase-1 volume fraction = 1  Min(alpha.water) = 1  Max(alpha.water) = 1
MULES: Correcting alpha.water
MULES: Correcting alpha.water
Phase-1 volume fraction = 1  Min(alpha.water) = 1  Max(alpha.water) = 1
DILUPBiCGStab:  Solving for T, Initial residual = 4.67942e-06, Final residual = 2.4942e-22, No Iterations 1
DILUPBiCGStab:  Solving for p_rgh, Initial residual = 3.3258e-11, Final residual = 7.40783e-27, No Iterations 1
ExecutionTime = 0.31 s  ClockTime = 0 s

Courant Number mean: 4.48326e-06 max: 0.000514754
Interface Courant Number mean: 0 max: 0
deltaT = 2.00037e-07
Time = 3.38193e-06

PIMPLE: iteration 1
DILUPBiCGStab:  Solving for alpha.water, Initial residual = 0.0704225, Final residual = 2.08532e-18, No Iterations 1
Phase-1 volume fraction = 1  Min(alpha.water) = 1  Max(alpha.water) = 1
MULES: Correcting alpha.water
MULES: Correcting alpha.water
Phase-1 volume fraction = 1  Min(alpha.water) = 1  Max(alpha.water) = 1
DILUPBiCGStab:  Solving for T, Initial residual = 0.026591, Final residual = 2.19588e-18, No Iterations 1
DILUPBiCGStab:  Solving for p_rgh, Initial residual = 0.000335152, Final residual = 4.82733e-20, No Iterations 1
PIMPLE: iteration 2
DILUPBiCGStab:  Solving for alpha.water, Initial residual = 0.0967742, Final residual = 2.5588e-18, No Iterations 1
Phase-1 volume fraction = 1  Min(alpha.water) = 1  Max(alpha.water) = 1
MULES: Correcting alpha.water
MULES: Correcting alpha.water
Phase-1 volume fraction = 1  Min(alpha.water) = 1  Max(alpha.water) = 1
DILUPBiCGStab:  Solving for T, Initial residual = 0.011148, Final residual = 2.61421e-18, No Iterations 1
DILUPBiCGStab:  Solving for p_rgh, Initial residual = 1.06675e-07, Final residual = 1.42682e-23, No Iterations 1
PIMPLE: iteration 3
DILUPBiCGStab:  Solving for alpha.water, Initial residual = 0.0588235, Final residual = 1.00497e-18, No Iterations 1
Phase-1 volume fraction = 1  Min(alpha.water) = 1  Max(alpha.water) = 1
MULES: Correcting alpha.water
MULES: Correcting alpha.water
Phase-1 volume fraction = 1  Min(alpha.water) = 1  Max(alpha.water) = 1
DILUPBiCGStab:  Solving for T, Initial residual = 4.60523e-06, Final residual = 4.65532e-22, No Iterations 1
DILUPBiCGStab:  Solving for p_rgh, Initial residual = 3.7484e-11, Final residual = 4.54152e-27, No Iterations 1
ExecutionTime = 0.31 s  ClockTime = 0 s

Courant Number mean: 4.7639e-06 max: 0.000513945
Interface Courant Number mean: 0 max: 0
deltaT = 2.00037e-07
Time = 3.58196e-06

PIMPLE: iteration 1
DILUPBiCGStab:  Solving for alpha.water, Initial residual = 0.0672269, Final residual = 1.39944e-18, No Iterations 1
Phase-1 volume fraction = 1  Min(alpha.water) = 1  Max(alpha.water) = 1
MULES: Correcting alpha.water
MULES: Correcting alpha.water
Phase-1 volume fraction = 1  Min(alpha.water) = 1  Max(alpha.water) = 1
DILUPBiCGStab:  Solving for T, Initial residual = 0.0246879, Final residual = 1.64298e-18, No Iterations 1
DILUPBiCGStab:  Solving for p_rgh, Initial residual = 0.000324783, Final residual = 8.85069e-20, No Iterations 1
PIMPLE: iteration 2
DILUPBiCGStab:  Solving for alpha.water, Initial residual = 0.10757, Final residual = 3.9811e-18, No Iterations 1
Phase-1 volume fraction = 1  Min(alpha.water) = 1  Max(alpha.water) = 1
MULES: Correcting alpha.water
MULES: Correcting alpha.water
Phase-1 volume fraction = 1  Min(alpha.water) = 1  Max(alpha.water) = 1
DILUPBiCGStab:  Solving for T, Initial residual = 0.0106791, Final residual = 4.4871e-19, No Iterations 1
DILUPBiCGStab:  Solving for p_rgh, Initial residual = 9.96903e-08, Final residual = 1.14559e-23, No Iterations 1
PIMPLE: iteration 3
DILUPBiCGStab:  Solving for alpha.water, Initial residual = 0.123967, Final residual = 4.12915e-18, No Iterations 1
Phase-1 volume fraction = 1  Min(alpha.water) = 1  Max(alpha.water) = 1
MULES: Correcting alpha.water
MULES: Correcting alpha.water
Phase-1 volume fraction = 1  Min(alpha.water) = 1  Max(alpha.water) = 1
DILUPBiCGStab:  Solving for T, Initial residual = 4.86045e-06, Final residual = 2.44854e-22, No Iterations 1
DILUPBiCGStab:  Solving for p_rgh, Initial residual = 3.24232e-11, Final residual = 7.02552e-27, No Iterations 1
ExecutionTime = 0.32 s  ClockTime = 0 s

Courant Number mean: 5.04336e-06 max: 0.000516479
Interface Courant Number mean: 0 max: 0
deltaT = 2.00037e-07
Time = 3.782e-06

PIMPLE: iteration 1
DILUPBiCGStab:  Solving for alpha.water, Initial residual = 0.0305677, Final residual = 1.45498e-18, No Iterations 1
Phase-1 volume fraction = 1  Min(alpha.water) = 1  Max(alpha.water) = 1
MULES: Correcting alpha.water
MULES: Correcting alpha.water
Phase-1 volume fraction = 1  Min(alpha.water) = 1  Max(alpha.water) = 1
DILUPBiCGStab:  Solving for T, Initial residual = 0.0237828, Final residual = 4.03743e-19, No Iterations 1
DILUPBiCGStab:  Solving for p_rgh, Initial residual = 0.000334695, Final residual = 2.4333e-20, No Iterations 1
PIMPLE: iteration 2
DILUPBiCGStab:  Solving for alpha.water, Initial residual = 0.0940171, Final residual = 4.27148e-18, No Iterations 1
Phase-1 volume fraction = 1  Min(alpha.water) = 1  Max(alpha.water) = 1
MULES: Correcting alpha.water
MULES: Correcting alpha.water
Phase-1 volume fraction = 1  Min(alpha.water) = 1  Max(alpha.water) = 1
DILUPBiCGStab:  Solving for T, Initial residual = 0.0101194, Final residual = 8.74141e-19, No Iterations 1
DILUPBiCGStab:  Solving for p_rgh, Initial residual = 9.25203e-08, Final residual = 6.6967e-24, No Iterations 1
PIMPLE: iteration 3
DILUPBiCGStab:  Solving for alpha.water, Initial residual = 0.0737705, Final residual = 3.18551e-18, No Iterations 1
Phase-1 volume fraction = 1  Min(alpha.water) = 1  Max(alpha.water) = 1
MULES: Correcting alpha.water
MULES: Correcting alpha.water
Phase-1 volume fraction = 1  Min(alpha.water) = 1  Max(alpha.water) = 1
DILUPBiCGStab:  Solving for T, Initial residual = 4.51172e-06, Final residual = 5.6472e-22, No Iterations 1
DILUPBiCGStab:  Solving for p_rgh, Initial residual = 2.80847e-11, Final residual = 2.87159e-27, No Iterations 1
ExecutionTime = 0.34 s  ClockTime = 0 s

Courant Number mean: 5.32192e-06 max: 0.000516445
Interface Courant Number mean: 0 max: 0
deltaT = 2.00037e-07
Time = 3.98204e-06

[...]
DILUPBiCGStab:  Solving for T, Initial residual = 0.000804944, Final residual = 2.04314e-19, No Iterations 1
DILUPBiCGStab:  Solving for p_rgh, Initial residual = 0.00039597, Final residual = 4.18684e-20, No Iterations 1
PIMPLE: iteration 2
DILUPBiCGStab:  Solving for alpha.water, Initial residual = 0.0116741, Final residual = 5.76862e-19, No Iterations 1
Phase-1 volume fraction = 1  Min(alpha.water) = 1  Max(alpha.water) = 1
MULES: Correcting alpha.water
MULES: Correcting alpha.water
Phase-1 volume fraction = 1  Min(alpha.water) = 1  Max(alpha.water) = 1
DILUPBiCGStab:  Solving for T, Initial residual = 0.000324765, Final residual = 3.02797e-20, No Iterations 1
DILUPBiCGStab:  Solving for p_rgh, Initial residual = 1.96325e-08, Final residual = 1.75442e-24, No Iterations 1
PIMPLE: iteration 3
DILUPBiCGStab:  Solving for alpha.water, Initial residual = 0.0109993, Final residual = 3.37859e-19, No Iterations 1
Phase-1 volume fraction = 1  Min(alpha.water) = 1  Max(alpha.water) = 1
MULES: Correcting alpha.water
MULES: Correcting alpha.water
Phase-1 volume fraction = 1  Min(alpha.water) = 1  Max(alpha.water) = 1
DILUPBiCGStab:  Solving for T, Initial residual = 1.83731e-08, Final residual = 1.40143e-24, No Iterations 1
DILUPBiCGStab:  Solving for p_rgh, Initial residual = 1.40531e-12, Final residual = 1.40531e-12, No Iterations 0
ExecutionTime = 3.8 s  ClockTime = 4 s

Courant Number mean: 0.000136369 max: 0.000488032
Interface Courant Number mean: 0 max: 0
deltaT = 2.00037e-07
Time = 9.81997e-05

PIMPLE: iteration 1
DILUPBiCGStab:  Solving for alpha.water, Initial residual = 0.00967141, Final residual = 3.36461e-19, No Iterations 1
Phase-1 volume fraction = 1  Min(alpha.water) = 1  Max(alpha.water) = 1
MULES: Correcting alpha.water
MULES: Correcting alpha.water
Phase-1 volume fraction = 1  Min(alpha.water) = 1  Max(alpha.water) = 1
DILUPBiCGStab:  Solving for T, Initial residual = 0.000803445, Final residual = 7.81274e-20, No Iterations 1
DILUPBiCGStab:  Solving for p_rgh, Initial residual = 0.000396271, Final residual = 4.86475e-20, No Iterations 1
PIMPLE: iteration 2
DILUPBiCGStab:  Solving for alpha.water, Initial residual = 0.0124592, Final residual = 5.30153e-19, No Iterations 1
Phase-1 volume fraction = 1  Min(alpha.water) = 1  Max(alpha.water) = 1
MULES: Correcting alpha.water
MULES: Correcting alpha.water
Phase-1 volume fraction = 1  Min(alpha.water) = 1  Max(alpha.water) = 1
DILUPBiCGStab:  Solving for T, Initial residual = 0.000324175, Final residual = 6.50076e-20, No Iterations 1
DILUPBiCGStab:  Solving for p_rgh, Initial residual = 1.96153e-08, Final residual = 2.30314e-24, No Iterations 1
PIMPLE: iteration 3
DILUPBiCGStab:  Solving for alpha.water, Initial residual = 0.0114835, Final residual = 5.30758e-19, No Iterations 1
Phase-1 volume fraction = 1  Min(alpha.water) = 1  Max(alpha.water) = 1
MULES: Correcting alpha.water
MULES: Correcting alpha.water
Phase-1 volume fraction = 1  Min(alpha.water) = 1  Max(alpha.water) = 1
DILUPBiCGStab:  Solving for T, Initial residual = 1.81971e-08, Final residual = 1.40157e-24, No Iterations 1
DILUPBiCGStab:  Solving for p_rgh, Initial residual = 3.07306e-12, Final residual = 3.07306e-12, No Iterations 0
ExecutionTime = 3.81 s  ClockTime = 4 s

Courant Number mean: 0.000136647 max: 0.000488023
Interface Courant Number mean: 0 max: 0
deltaT = 2.00037e-07
Time = 9.83997e-05

PIMPLE: iteration 1
DILUPBiCGStab:  Solving for alpha.water, Initial residual = 0.0106246, Final residual = 4.14878e-19, No Iterations 1
Phase-1 volume fraction = 1  Min(alpha.water) = 1  Max(alpha.water) = 1
MULES: Correcting alpha.water
MULES: Correcting alpha.water
Phase-1 volume fraction = 1  Min(alpha.water) = 1  Max(alpha.water) = 1
DILUPBiCGStab:  Solving for T, Initial residual = 0.000801955, Final residual = 7.55465e-20, No Iterations 1
DILUPBiCGStab:  Solving for p_rgh, Initial residual = 0.000396586, Final residual = 2.85631e-20, No Iterations 1
PIMPLE: iteration 2
DILUPBiCGStab:  Solving for alpha.water, Initial residual = 0.0131694, Final residual = 6.49905e-19, No Iterations 1
Phase-1 volume fraction = 1  Min(alpha.water) = 1  Max(alpha.water) = 1
MULES: Correcting alpha.water
MULES: Correcting alpha.water
Phase-1 volume fraction = 1  Min(alpha.water) = 1  Max(alpha.water) = 1
DILUPBiCGStab:  Solving for T, Initial residual = 0.000323553, Final residual = 3.022e-20, No Iterations 1
DILUPBiCGStab:  Solving for p_rgh, Initial residual = 1.95832e-08, Final residual = 1.4927e-24, No Iterations 1
PIMPLE: iteration 3
DILUPBiCGStab:  Solving for alpha.water, Initial residual = 0.012203, Final residual = 6.09415e-19, No Iterations 1
Phase-1 volume fraction = 1  Min(alpha.water) = 1  Max(alpha.water) = 1
MULES: Correcting alpha.water
MULES: Correcting alpha.water
Phase-1 volume fraction = 1  Min(alpha.water) = 1  Max(alpha.water) = 1
DILUPBiCGStab:  Solving for T, Initial residual = 1.79292e-08, Final residual = 1.17137e-24, No Iterations 1
DILUPBiCGStab:  Solving for p_rgh, Initial residual = 3.3613e-12, Final residual = 3.3613e-12, No Iterations 0
ExecutionTime = 3.81 s  ClockTime = 4 s

Courant Number mean: 0.000136925 max: 0.000488021
Interface Courant Number mean: 0 max: 0
deltaT = 2.00037e-07
Time = 9.85997e-05

PIMPLE: iteration 1
DILUPBiCGStab:  Solving for alpha.water, Initial residual = 0.0116932, Final residual = 5.12879e-19, No Iterations 1
Phase-1 volume fraction = 1  Min(alpha.water) = 1  Max(alpha.water) = 1
MULES: Correcting alpha.water
MULES: Correcting alpha.water
Phase-1 volume fraction = 1  Min(alpha.water) = 1  Max(alpha.water) = 1
DILUPBiCGStab:  Solving for T, Initial residual = 0.000800469, Final residual = 6.55059e-20, No Iterations 1
DILUPBiCGStab:  Solving for p_rgh, Initial residual = 0.000396893, Final residual = 9.32433e-20, No Iterations 1
PIMPLE: iteration 2
DILUPBiCGStab:  Solving for alpha.water, Initial residual = 0.012701, Final residual = 6.14599e-19, No Iterations 1
Phase-1 volume fraction = 1  Min(alpha.water) = 1  Max(alpha.water) = 1
MULES: Correcting alpha.water
MULES: Correcting alpha.water
Phase-1 volume fraction = 1  Min(alpha.water) = 1  Max(alpha.water) = 1
DILUPBiCGStab:  Solving for T, Initial residual = 0.000322936, Final residual = 3.06225e-20, No Iterations 1
DILUPBiCGStab:  Solving for p_rgh, Initial residual = 1.95299e-08, Final residual = 1.34352e-24, No Iterations 1
PIMPLE: iteration 3
DILUPBiCGStab:  Solving for alpha.water, Initial residual = 0.0119173, Final residual = 4.80036e-19, No Iterations 1
Phase-1 volume fraction = 1  Min(alpha.water) = 1  Max(alpha.water) = 1
MULES: Correcting alpha.water
MULES: Correcting alpha.water
Phase-1 volume fraction = 1  Min(alpha.water) = 1  Max(alpha.water) = 1
DILUPBiCGStab:  Solving for T, Initial residual = 1.78964e-08, Final residual = 1.21079e-24, No Iterations 1
DILUPBiCGStab:  Solving for p_rgh, Initial residual = 2.72988e-12, Final residual = 2.72988e-12, No Iterations 0
ExecutionTime = 3.83 s  ClockTime = 4 s

Courant Number mean: 0.000137204 max: 0.000488028
Interface Courant Number mean: 0 max: 0
deltaT = 2.00037e-07
Time = 9.87998e-05

PIMPLE: iteration 1
DILUPBiCGStab:  Solving for alpha.water, Initial residual = 0.0101975, Final residual = 4.33553e-19, No Iterations 1
Phase-1 volume fraction = 1  Min(alpha.water) = 1  Max(alpha.water) = 1
MULES: Correcting alpha.water
MULES: Correcting alpha.water
Phase-1 volume fraction = 1  Min(alpha.water) = 1  Max(alpha.water) = 1
DILUPBiCGStab:  Solving for T, Initial residual = 0.000798971, Final residual = 6.86442e-20, No Iterations 1
DILUPBiCGStab:  Solving for p_rgh, Initial residual = 0.000397214, Final residual = 4.05846e-20, No Iterations 1
PIMPLE: iteration 2
DILUPBiCGStab:  Solving for alpha.water, Initial residual = 0.0118305, Final residual = 4.72433e-19, No Iterations 1
Phase-1 volume fraction = 1  Min(alpha.water) = 1  Max(alpha.water) = 1
MULES: Correcting alpha.water
MULES: Correcting alpha.water
Phase-1 volume fraction = 1  Min(alpha.water) = 1  Max(alpha.water) = 1
DILUPBiCGStab:  Solving for T, Initial residual = 0.00032235, Final residual = 2.83097e-20, No Iterations 1
DILUPBiCGStab:  Solving for p_rgh, Initial residual = 1.969e-08, Final residual = 4.05047e-24, No Iterations 1
PIMPLE: iteration 3
DILUPBiCGStab:  Solving for alpha.water, Initial residual = 0.0118374, Final residual = 4.40329e-19, No Iterations 1
Phase-1 volume fraction = 1  Min(alpha.water) = 1  Max(alpha.water) = 1
MULES: Correcting alpha.water
MULES: Correcting alpha.water
Phase-1 volume fraction = 1  Min(alpha.water) = 1  Max(alpha.water) = 1
DILUPBiCGStab:  Solving for T, Initial residual = 1.81793e-08, Final residual = 1.68422e-24, No Iterations 1
DILUPBiCGStab:  Solving for p_rgh, Initial residual = 2.46576e-12, Final residual = 2.46576e-12, No Iterations 0
ExecutionTime = 3.83 s  ClockTime = 4 s

Courant Number mean: 0.000137482 max: 0.000488028
Interface Courant Number mean: 0 max: 0
deltaT = 2.00037e-07
Time = 9.89998e-05

PIMPLE: iteration 1
DILUPBiCGStab:  Solving for alpha.water, Initial residual = 0.0099924, Final residual = 3.63377e-19, No Iterations 1
Phase-1 volume fraction = 1  Min(alpha.water) = 1  Max(alpha.water) = 1
MULES: Correcting alpha.water
MULES: Correcting alpha.water
Phase-1 volume fraction = 1  Min(alpha.water) = 1  Max(alpha.water) = 1
DILUPBiCGStab:  Solving for T, Initial residual = 0.00079748, Final residual = 1.77596e-19, No Iterations 1
DILUPBiCGStab:  Solving for p_rgh, Initial residual = 0.000397525, Final residual = 7.91214e-20, No Iterations 1
PIMPLE: iteration 2
DILUPBiCGStab:  Solving for alpha.water, Initial residual = 0.0130114, Final residual = 5.92221e-19, No Iterations 1
Phase-1 volume fraction = 1  Min(alpha.water) = 1  Max(alpha.water) = 1
MULES: Correcting alpha.water
MULES: Correcting alpha.water
Phase-1 volume fraction = 1  Min(alpha.water) = 1  Max(alpha.water) = 1
DILUPBiCGStab:  Solving for T, Initial residual = 0.000321771, Final residual = 7.99267e-20, No Iterations 1
DILUPBiCGStab:  Solving for p_rgh, Initial residual = 1.95136e-08, Final residual = 1.80054e-24, No Iterations 1
PIMPLE: iteration 3
DILUPBiCGStab:  Solving for alpha.water, Initial residual = 0.0116904, Final residual = 4.99764e-19, No Iterations 1
Phase-1 volume fraction = 1  Min(alpha.water) = 1  Max(alpha.water) = 1
MULES: Correcting alpha.water
MULES: Correcting alpha.water
Phase-1 volume fraction = 1  Min(alpha.water) = 1  Max(alpha.water) = 1
DILUPBiCGStab:  Solving for T, Initial residual = 1.79194e-08, Final residual = 2.03065e-24, No Iterations 1
DILUPBiCGStab:  Solving for p_rgh, Initial residual = 1.67078e-12, Final residual = 1.67078e-12, No Iterations 0
ExecutionTime = 3.84 s  ClockTime = 4 s

Courant Number mean: 0.00013776 max: 0.000488022
Interface Courant Number mean: 0 max: 0
deltaT = 2.00037e-07
Time = 9.91999e-05

PIMPLE: iteration 1
DILUPBiCGStab:  Solving for alpha.water, Initial residual = 0.0102696, Final residual = 3.82299e-19, No Iterations 1
Phase-1 volume fraction = 1  Min(alpha.water) = 1  Max(alpha.water) = 1
MULES: Correcting alpha.water
MULES: Correcting alpha.water
Phase-1 volume fraction = 1  Min(alpha.water) = 1  Max(alpha.water) = 1
DILUPBiCGStab:  Solving for T, Initial residual = 0.000796018, Final residual = 1.44083e-19, No Iterations 1
DILUPBiCGStab:  Solving for p_rgh, Initial residual = 0.000397829, Final residual = 4.31012e-20, No Iterations 1
PIMPLE: iteration 2
DILUPBiCGStab:  Solving for alpha.water, Initial residual = 0.0129674, Final residual = 4.71417e-19, No Iterations 1
Phase-1 volume fraction = 1  Min(alpha.water) = 1  Max(alpha.water) = 1
MULES: Correcting alpha.water
MULES: Correcting alpha.water
Phase-1 volume fraction = 1  Min(alpha.water) = 1  Max(alpha.water) = 1
DILUPBiCGStab:  Solving for T, Initial residual = 0.000321185, Final residual = 7.11532e-20, No Iterations 1
DILUPBiCGStab:  Solving for p_rgh, Initial residual = 1.95486e-08, Final residual = 4.60169e-24, No Iterations 1
PIMPLE: iteration 3
DILUPBiCGStab:  Solving for alpha.water, Initial residual = 0.0131035, Final residual = 4.2039e-19, No Iterations 1
Phase-1 volume fraction = 1  Min(alpha.water) = 1  Max(alpha.water) = 1
MULES: Correcting alpha.water
MULES: Correcting alpha.water
Phase-1 volume fraction = 1  Min(alpha.water) = 1  Max(alpha.water) = 1
DILUPBiCGStab:  Solving for T, Initial residual = 1.78042e-08, Final residual = 1.26948e-24, No Iterations 1
DILUPBiCGStab:  Solving for p_rgh, Initial residual = 2.79716e-12, Final residual = 2.79716e-12, No Iterations 0
ExecutionTime = 3.85 s  ClockTime = 4 s

Courant Number mean: 0.000138038 max: 0.000488013
Interface Courant Number mean: 0 max: 0
deltaT = 2.00037e-07
Time = 9.93999e-05

PIMPLE: iteration 1
DILUPBiCGStab:  Solving for alpha.water, Initial residual = 0.010492, Final residual = 4.33658e-19, No Iterations 1
Phase-1 volume fraction = 1  Min(alpha.water) = 1  Max(alpha.water) = 1
MULES: Correcting alpha.water
MULES: Correcting alpha.water
Phase-1 volume fraction = 1  Min(alpha.water) = 1  Max(alpha.water) = 1
DILUPBiCGStab:  Solving for T, Initial residual = 0.000794553, Final residual = 6.41715e-20, No Iterations 1
DILUPBiCGStab:  Solving for p_rgh, Initial residual = 0.000398146, Final residual = 8.51958e-20, No Iterations 1
PIMPLE: iteration 2
DILUPBiCGStab:  Solving for alpha.water, Initial residual = 0.0134613, Final residual = 5.13431e-19, No Iterations 1
Phase-1 volume fraction = 1  Min(alpha.water) = 1  Max(alpha.water) = 1
MULES: Correcting alpha.water
MULES: Correcting alpha.water
Phase-1 volume fraction = 1  Min(alpha.water) = 1  Max(alpha.water) = 1
DILUPBiCGStab:  Solving for T, Initial residual = 0.000320573, Final residual = 3.61334e-20, No Iterations 1
DILUPBiCGStab:  Solving for p_rgh, Initial residual = 1.9536e-08, Final residual = 1.65954e-24, No Iterations 1
PIMPLE: iteration 3
DILUPBiCGStab:  Solving for alpha.water, Initial residual = 0.0129476, Final residual = 5.05148e-19, No Iterations 1
Phase-1 volume fraction = 1  Min(alpha.water) = 1  Max(alpha.water) = 1
MULES: Correcting alpha.water
MULES: Correcting alpha.water
Phase-1 volume fraction = 1  Min(alpha.water) = 1  Max(alpha.water) = 1
DILUPBiCGStab:  Solving for T, Initial residual = 1.76599e-08, Final residual = 1.63152e-24, No Iterations 1
DILUPBiCGStab:  Solving for p_rgh, Initial residual = 3.11704e-12, Final residual = 3.11704e-12, No Iterations 0
ExecutionTime = 3.85 s  ClockTime = 4 s

Courant Number mean: 0.000138316 max: 0.000488015
Interface Courant Number mean: 0 max: 0
deltaT = 2.00037e-07
Time = 9.95999e-05

PIMPLE: iteration 1
DILUPBiCGStab:  Solving for alpha.water, Initial residual = 0.00760501, Final residual = 2.92311e-19, No Iterations 1
Phase-1 volume fraction = 1  Min(alpha.water) = 1  Max(alpha.water) = 1
MULES: Correcting alpha.water
MULES: Correcting alpha.water
Phase-1 volume fraction = 1  Min(alpha.water) = 1  Max(alpha.water) = 1
DILUPBiCGStab:  Solving for T, Initial residual = 0.000793088, Final residual = 1.87529e-19, No Iterations 1
DILUPBiCGStab:  Solving for p_rgh, Initial residual = 0.000398459, Final residual = 3.73044e-20, No Iterations 1
PIMPLE: iteration 2
DILUPBiCGStab:  Solving for alpha.water, Initial residual = 0.0112425, Final residual = 3.5764e-19, No Iterations 1
Phase-1 volume fraction = 1  Min(alpha.water) = 1  Max(alpha.water) = 1
MULES: Correcting alpha.water
MULES: Correcting alpha.water
Phase-1 volume fraction = 1  Min(alpha.water) = 1  Max(alpha.water) = 1
DILUPBiCGStab:  Solving for T, Initial residual = 0.000319972, Final residual = 6.81815e-20, No Iterations 1
DILUPBiCGStab:  Solving for p_rgh, Initial residual = 1.95309e-08, Final residual = 1.98729e-24, No Iterations 1
PIMPLE: iteration 3
DILUPBiCGStab:  Solving for alpha.water, Initial residual = 0.0122258, Final residual = 4.41723e-19, No Iterations 1
Phase-1 volume fraction = 1  Min(alpha.water) = 1  Max(alpha.water) = 1
MULES: Correcting alpha.water
MULES: Correcting alpha.water
Phase-1 volume fraction = 1  Min(alpha.water) = 1  Max(alpha.water) = 1
DILUPBiCGStab:  Solving for T, Initial residual = 1.77397e-08, Final residual = 1.78982e-24, No Iterations 1
DILUPBiCGStab:  Solving for p_rgh, Initial residual = 4.23197e-12, Final residual = 4.23197e-12, No Iterations 0
ExecutionTime = 3.86 s  ClockTime = 4 s

Courant Number mean: 0.000138595 max: 0.00048802
Interface Courant Number mean: 0 max: 0
deltaT = 2.00037e-07
Time = 9.98e-05

PIMPLE: iteration 1
DILUPBiCGStab:  Solving for alpha.water, Initial residual = 0.00750557, Final residual = 2.73506e-19, No Iterations 1
Phase-1 volume fraction = 1  Min(alpha.water) = 1  Max(alpha.water) = 1
MULES: Correcting alpha.water
MULES: Correcting alpha.water
Phase-1 volume fraction = 1  Min(alpha.water) = 1  Max(alpha.water) = 1
DILUPBiCGStab:  Solving for T, Initial residual = 0.000791625, Final residual = 9.8195e-20, No Iterations 1
DILUPBiCGStab:  Solving for p_rgh, Initial residual = 0.00039878, Final residual = 4.39198e-20, No Iterations 1
PIMPLE: iteration 2
DILUPBiCGStab:  Solving for alpha.water, Initial residual = 0.0114983, Final residual = 4.62518e-19, No Iterations 1
Phase-1 volume fraction = 1  Min(alpha.water) = 1  Max(alpha.water) = 1
MULES: Correcting alpha.water
MULES: Correcting alpha.water
Phase-1 volume fraction = 1  Min(alpha.water) = 1  Max(alpha.water) = 1
DILUPBiCGStab:  Solving for T, Initial residual = 0.000319404, Final residual = 2.79764e-20, No Iterations 1
DILUPBiCGStab:  Solving for p_rgh, Initial residual = 1.95613e-08, Final residual = 1.99681e-24, No Iterations 1
PIMPLE: iteration 3
DILUPBiCGStab:  Solving for alpha.water, Initial residual = 0.0120694, Final residual = 5.4649e-19, No Iterations 1
Phase-1 volume fraction = 1  Min(alpha.water) = 1  Max(alpha.water) = 1
MULES: Correcting alpha.water
MULES: Correcting alpha.water
Phase-1 volume fraction = 1  Min(alpha.water) = 1  Max(alpha.water) = 1
DILUPBiCGStab:  Solving for T, Initial residual = 1.77469e-08, Final residual = 1.93345e-24, No Iterations 1
DILUPBiCGStab:  Solving for p_rgh, Initial residual = 2.33649e-12, Final residual = 2.33649e-12, No Iterations 0
ExecutionTime = 3.87 s  ClockTime = 4 s

Courant Number mean: 0.000138873 max: 0.000488019
Interface Courant Number mean: 0 max: 0
deltaT = 2.00037e-07
Time = 0.0001

PIMPLE: iteration 1
DILUPBiCGStab:  Solving for alpha.water, Initial residual = 0.00860605, Final residual = 2.73068e-19, No Iterations 1
Phase-1 volume fraction = 1  Min(alpha.water) = 1  Max(alpha.water) = 1
MULES: Correcting alpha.water
MULES: Correcting alpha.water
Phase-1 volume fraction = 1  Min(alpha.water) = 1  Max(alpha.water) = 1
DILUPBiCGStab:  Solving for T, Initial residual = 0.000790172, Final residual = 4.56034e-19, No Iterations 1
DILUPBiCGStab:  Solving for p_rgh, Initial residual = 0.000399092, Final residual = 8.83657e-20, No Iterations 1
PIMPLE: iteration 2
DILUPBiCGStab:  Solving for alpha.water, Initial residual = 0.0127605, Final residual = 4.68025e-19, No Iterations 1
Phase-1 volume fraction = 1  Min(alpha.water) = 1  Max(alpha.water) = 1
MULES: Correcting alpha.water
MULES: Correcting alpha.water
Phase-1 volume fraction = 1  Min(alpha.water) = 1  Max(alpha.water) = 1
DILUPBiCGStab:  Solving for T, Initial residual = 0.000318837, Final residual = 2.61467e-20, No Iterations 1
DILUPBiCGStab:  Solving for p_rgh, Initial residual = 1.95015e-08, Final residual = 1.9725e-24, No Iterations 1
PIMPLE: iteration 3
DILUPBiCGStab:  Solving for alpha.water, Initial residual = 0.0120552, Final residual = 4.48395e-19, No Iterations 1
Phase-1 volume fraction = 1  Min(alpha.water) = 1  Max(alpha.water) = 1
MULES: Correcting alpha.water
MULES: Correcting alpha.water
Phase-1 volume fraction = 1  Min(alpha.water) = 1  Max(alpha.water) = 1
DILUPBiCGStab:  Solving for T, Initial residual = 1.76618e-08, Final residual = 1.93826e-24, No Iterations 1
DILUPBiCGStab:  Solving for p_rgh, Initial residual = 3.71115e-12, Final residual = 3.71115e-12, No Iterations 0
ExecutionTime = 3.88 s  ClockTime = 4 s

End

