/*---------------------------------------------------------------------------*\
| =========                 |                                                 |
| \\      /  F ield         | OpenFOAM: The Open Source CFD Toolbox           |
|  \\    /   O peration     | Version:  2312                                  |
|   \\  /    A nd           | Website:  www.openfoam.com                      |
|    \\/     M anipulation  |                                                 |
\*---------------------------------------------------------------------------*/
Build  : _1d8f0d55f7-20231221 OPENFOAM=2312 version=v2312
Arch   : "LSB;label=32;scalar=64"
Exec   : twoPhaseMixingHLLCFoam
Date   : Jan 14 2025
Time   : 01:46:05
Host   : DESKTOP-RQCD3EN
PID    : 238346
I/O    : uncollated
Case   : /home/dodo/OpenFOAM/dodo-v2312/run/20240927CasesforTheTwoPhaseMixingHLLCFoam/6LiqSod/finalHLLC_new
nProcs : 1
trapFpe: Floating point exception trapping enabled (FOAM_SIGFPE).
fileModificationChecking : Monitoring run-time modified files using timeStampMaster (fileModificationSkew 5, maxFileModificationPolls 20)
allowSystemOperations : Allowing user-supplied system call operations

// * * * * * * * * * * * * * * * * * * * * * * * * * * * * * * * * * * * * * //
Create time

Create mesh for time = 0


PIMPLE: no residual control data found. Calculations will employ 3 corrector loops

Reading field U

Constructing compressibleTwoPhaseMixtureThermo

Selecting saturationModel: constant
Reading thermophysical properties

Creating field gradp

Creating field kinetic energy K

Declare and initialise the cumulative continuity error

No MRF models present

No finite volume options present
Selecting finite volume kappaFunction type sonicCourantInverse
Creating turbulence model

Selecting turbulence model type laminar
Selecting laminar stress model Stokes
Marking cells with bad quality to limit pressure gradient
Courant Number max: 0

Starting time loop

Sampled set:
    line -> csv

Mean and max Characteristic Courant Numbers = 0.00120636 0.00241273
Courant Number max: 0
deltaT = 1.2e-09
Time = 1.2e-09

PIMPLE: iteration 1
diagonal:  Solving for rho, Initial residual = 0, Final residual = 0, No Iterations 0
rho max/min : 1002.15 / 998.01
Creating matrix for fvOptions
DILUPBiCGStab:  Solving for Y.Liq, Initial residual = 1, Final residual = 1.08802e-17, No Iterations 1
Mass fraction min/max = 1/1
DILUPBiCGStab:  Solving for h, Initial residual = 1, Final residual = 1.68119e-17, No Iterations 1
max/min cf_own:1507.95/1507.95
max/min cf_nei:1507.95/1507.95
max/min alpha_own: 0.00197489/0
max/min alpha_nei: -0/-0
DILUPBiCGStab:  Solving for p, Initial residual = 6.25374e-09, Final residual = 7.07013e-25, No Iterations 1
max(mag(U)): 0.00862186
max/min p: 1e+07/999995
diagonal:  Solving for rho, Initial residual = 0, Final residual = 0, No Iterations 0
rho max/min : 1002.15 / 998.01
time step continuity errors : sum local = 9.49208e-17, global = 6.02491e-17, cumulative = 0
max/min FaceSonicCourant: 0.00289528/0.00144764
max/min FaceSonicCourant: 0.00289528/0.00144764
PIMPLE: iteration 2
diagonal:  Solving for rho, Initial residual = 0, Final residual = 0, No Iterations 0
rho max/min : 1002.15 / 998.01
Creating matrix for fvOptions
DILUPBiCGStab:  Solving for Y.Liq, Initial residual = 0.146119, Final residual = 7.60427e-19, No Iterations 1
Mass fraction min/max = 1/1
DILUPBiCGStab:  Solving for h, Initial residual = 0.999998, Final residual = 1.2137e-17, No Iterations 1
max/min cf_own:1507.95/1507.95
max/min cf_nei:1507.95/1507.95
max/min alpha_own: 0.00197772/0
max/min alpha_nei: 9.89917e-10/-0
DILUPBiCGStab:  Solving for p, Initial residual = 1.72682e-06, Final residual = 3.21811e-22, No Iterations 1
max(mag(U)): 0.00864528
max/min p: 1e+07/1e+06
diagonal:  Solving for rho, Initial residual = 0, Final residual = 0, No Iterations 0
rho max/min : 1002.15 / 998.01
time step continuity errors : sum local = 9.67681e-17, global = 1.09415e-17, cumulative = 0
max/min FaceSonicCourant: 0.00289528/0.00144764
max/min FaceSonicCourant: 0.00289528/0.00144764
PIMPLE: iteration 3
diagonal:  Solving for rho, Initial residual = 0, Final residual = 0, No Iterations 0
rho max/min : 1002.15 / 998.01
Creating matrix for fvOptions
DILUPBiCGStab:  Solving for Y.Liq, Initial residual = 0.144495, Final residual = 5.09277e-19, No Iterations 1
Mass fraction min/max = 1/1
DILUPBiCGStab:  Solving for h, Initial residual = 0.993501, Final residual = 8.73936e-20, No Iterations 1
max/min cf_own:1507.96/1507.95
max/min cf_nei:1507.96/1507.95
max/min alpha_own: 0.00197365/0
max/min alpha_nei: 6.84432e-13/-0
DILUPBiCGStab:  Solving for p, Initial residual = 1.12921e-08, Final residual = 9.42541e-25, No Iterations 1
max(mag(U)): 0.00432248
max/min p: 1e+07/1e+06
diagonal:  Solving for rho, Initial residual = 0, Final residual = 0, No Iterations 0
rho max/min : 1002.15 / 998.01
time step continuity errors : sum local = 7.06222e-17, global = 3.56663e-17, cumulative = 0
max/min FaceSonicCourant: 0.00289528/0.00144764
max/min FaceSonicCourant: 0.00289528/0.00144764
ExecutionTime = 0.02 s  ClockTime = 0 s

Mean and max Characteristic Courant Numbers = 0.00144765 0.00289528
Courant Number max: 1.43707e-06
deltaT = 1.44001e-09
Time = 2.64002e-09

PIMPLE: iteration 1
diagonal:  Solving for rho, Initial residual = 0, Final residual = 0, No Iterations 0
rho max/min : 1002.15 / 998.01
Creating matrix for fvOptions
DILUPBiCGStab:  Solving for Y.Liq, Initial residual = 0.0397946, Final residual = 4.22608e-39, No Iterations 1
Mass fraction min/max = 1/1
DILUPBiCGStab:  Solving for h, Initial residual = 0.375085, Final residual = 3.36814e-17, No Iterations 1
max/min cf_own:1507.96/1507.95
max/min cf_nei:1507.96/1507.95
max/min alpha_own: 0.00197362/0
max/min alpha_nei: 5.37032e-15/-0
DILUPBiCGStab:  Solving for p, Initial residual = 2.08322e-06, Final residual = 1.93182e-22, No Iterations 1
max(mag(U)): 0.0094997
max/min p: 1e+07/1e+06
diagonal:  Solving for rho, Initial residual = 0, Final residual = 0, No Iterations 0
rho max/min : 1002.15 / 998.01
time step continuity errors : sum local = 9.33577e-17, global = -4.73183e-17, cumulative = 0
max/min FaceSonicCourant: 0.00347436/0.00173717
max/min FaceSonicCourant: 0.00347436/0.00173717
PIMPLE: iteration 2
diagonal:  Solving for rho, Initial residual = 0, Final residual = 0, No Iterations 0
rho max/min : 1002.15 / 998.01
Creating matrix for fvOptions
DILUPBiCGStab:  Solving for Y.Liq, Initial residual = 0.0434783, Final residual = 1.41972e-19, No Iterations 1
Mass fraction min/max = 1/1
DILUPBiCGStab:  Solving for h, Initial residual = 0.000388626, Final residual = 1.19561e-20, No Iterations 1
max/min cf_own:1507.96/1507.95
max/min cf_nei:1507.96/1507.95
max/min alpha_own: 0.00197214/0
max/min alpha_nei: 4.3667e-15/-0
DILUPBiCGStab:  Solving for p, Initial residual = 6.90386e-09, Final residual = 7.54069e-25, No Iterations 1
max(mag(U)): 0.00949351
max/min p: 1e+07/1e+06
diagonal:  Solving for rho, Initial residual = 0, Final residual = 0, No Iterations 0
rho max/min : 1002.15 / 998.01
time step continuity errors : sum local = 7.01959e-17, global = -2.0462e-17, cumulative = 0
max/min FaceSonicCourant: 0.00347436/0.00173717
max/min FaceSonicCourant: 0.00347436/0.00173717
PIMPLE: iteration 3
diagonal:  Solving for rho, Initial residual = 0, Final residual = 0, No Iterations 0
rho max/min : 1002.15 / 998.01
Creating matrix for fvOptions
DILUPBiCGStab:  Solving for Y.Liq, Initial residual = 0.0421456, Final residual = 1.41791e-19, No Iterations 1
Mass fraction min/max = 1/1
DILUPBiCGStab:  Solving for h, Initial residual = 0.000904997, Final residual = 2.39514e-20, No Iterations 1
max/min cf_own:1507.96/1507.95
max/min cf_nei:1507.96/1507.95
max/min alpha_own: 0.00197214/0
max/min alpha_nei: 4.42483e-15/-0
DILUPBiCGStab:  Solving for p, Initial residual = 2.156e-11, Final residual = 2.07152e-27, No Iterations 1
max(mag(U)): 0.00950418
max/min p: 1e+07/1e+06
diagonal:  Solving for rho, Initial residual = 0, Final residual = 0, No Iterations 0
rho max/min : 1002.15 / 998.01
time step continuity errors : sum local = 9.27893e-17, global = -4.70341e-17, cumulative = 0
max/min FaceSonicCourant: 0.00347436/0.00173717
max/min FaceSonicCourant: 0.00347436/0.00173717
ExecutionTime = 0.02 s  ClockTime = 0 s

Mean and max Characteristic Courant Numbers = 0.00173718 0.00347436
Courant Number max: 1.72412e-06
deltaT = 1.72803e-09
Time = 4.36804e-09

PIMPLE: iteration 1
diagonal:  Solving for rho, Initial residual = 0, Final residual = 0, No Iterations 0
rho max/min : 1002.15 / 998.01
Creating matrix for fvOptions
DILUPBiCGStab:  Solving for Y.Liq, Initial residual = 0.494655, Final residual = 4.42363e-18, No Iterations 1
Mass fraction min/max = 1/1
DILUPBiCGStab:  Solving for h, Initial residual = 0.246707, Final residual = 4.32898e-20, No Iterations 1
max/min cf_own:1507.97/1507.94
max/min cf_nei:1507.97/1507.94
max/min alpha_own: 0.00197212/0
max/min alpha_nei: 4.36675e-15/-0
DILUPBiCGStab:  Solving for p, Initial residual = 2.49799e-06, Final residual = 2.325e-22, No Iterations 1
max(mag(U)): 0.0156972
max/min p: 1e+07/1e+06
diagonal:  Solving for rho, Initial residual = 0, Final residual = 0, No Iterations 0
rho max/min : 1002.15 / 998.01
time step continuity errors : sum local = 9.6626e-17, global = -3.52401e-17, cumulative = 0
max/min FaceSonicCourant: 0.00416925/0.00208461
max/min FaceSonicCourant: 0.00416925/0.00208461
PIMPLE: iteration 2
diagonal:  Solving for rho, Initial residual = 0, Final residual = 0, No Iterations 0
rho max/min : 1002.15 / 998.01
Creating matrix for fvOptions
DILUPBiCGStab:  Solving for Y.Liq, Initial residual = 0.157522, Final residual = 4.02824e-18, No Iterations 1
Mass fraction min/max = 1/1
DILUPBiCGStab:  Solving for h, Initial residual = 2.41023e-06, Final residual = 2.10576e-25, No Iterations 1
max/min cf_own:1507.97/1507.94
max/min cf_nei:1507.97/1507.94
max/min alpha_own: 0.00197034/0
max/min alpha_nei: 1.33003e-14/-0
DILUPBiCGStab:  Solving for p, Initial residual = 9.91539e-09, Final residual = 4.52336e-25, No Iterations 1
max(mag(U)): 0.0156973
max/min p: 1e+07/1e+06
diagonal:  Solving for rho, Initial residual = 0, Final residual = 0, No Iterations 0
rho max/min : 1002.15 / 998.01
time step continuity errors : sum local = 9.64839e-17, global = -3.2256e-17, cumulative = 0
max/min FaceSonicCourant: 0.00416925/0.00208461
max/min FaceSonicCourant: 0.00416925/0.00208461
PIMPLE: iteration 3
diagonal:  Solving for rho, Initial residual = 0, Final residual = 0, No Iterations 0
rho max/min : 1002.15 / 998.01
Creating matrix for fvOptions
DILUPBiCGStab:  Solving for Y.Liq, Initial residual = 0.160211, Final residual = 4.39789e-18, No Iterations 1
Mass fraction min/max = 1/1
DILUPBiCGStab:  Solving for h, Initial residual = 0.000785207, Final residual = 2.64816e-25, No Iterations 1
max/min cf_own:1507.97/1507.94
max/min cf_nei:1507.97/1507.94
max/min alpha_own: 0.00197036/0
max/min alpha_nei: 1.31332e-14/-0
DILUPBiCGStab:  Solving for p, Initial residual = 3.79893e-11, Final residual = 4.08644e-27, No Iterations 1
max(mag(U)): 0.0157126
max/min p: 1e+07/1e+06
diagonal:  Solving for rho, Initial residual = 0, Final residual = 0, No Iterations 0
rho max/min : 1002.15 / 998.01
time step continuity errors : sum local = 1.01884e-16, global = 4.6892e-18, cumulative = 0
max/min FaceSonicCourant: 0.00416925/0.00208461
max/min FaceSonicCourant: 0.00416925/0.00208461
ExecutionTime = 0.03 s  ClockTime = 0 s

Mean and max Characteristic Courant Numbers = 0.00208463 0.00416925
Courant Number max: 2.07025e-06
deltaT = 2.07361e-09
Time = 6.44165e-09

PIMPLE: iteration 1
diagonal:  Solving for rho, Initial residual = 0, Final residual = 0, No Iterations 0
rho max/min : 1002.15 / 998.01
Creating matrix for fvOptions
DILUPBiCGStab:  Solving for Y.Liq, Initial residual = 0.221914, Final residual = 4.38854e-18, No Iterations 1
Mass fraction min/max = 1/1
DILUPBiCGStab:  Solving for h, Initial residual = 0.191722, Final residual = 1.7274e-17, No Iterations 1
max/min cf_own:1507.98/1507.93
max/min cf_nei:1507.98/1507.93
max/min alpha_own: 0.00197033/0
max/min alpha_nei: 1.31808e-14/-0
DILUPBiCGStab:  Solving for p, Initial residual = 2.99486e-06, Final residual = 2.80086e-22, No Iterations 1
max(mag(U)): 0.0231267
max/min p: 1e+07/1e+06
diagonal:  Solving for rho, Initial residual = 0, Final residual = 0, No Iterations 0
rho max/min : 1002.15 / 998.01
time step continuity errors : sum local = 7.68745e-17, global = -5.07286e-17, cumulative = 0
max/min FaceSonicCourant: 0.00500305/0.00250149
max/min FaceSonicCourant: 0.00500305/0.00250149
PIMPLE: iteration 2
diagonal:  Solving for rho, Initial residual = 0, Final residual = 0, No Iterations 0
rho max/min : 1002.15 / 998.01
Creating matrix for fvOptions
DILUPBiCGStab:  Solving for Y.Liq, Initial residual = 0.0870206, Final residual = 1.88312e-18, No Iterations 1
Mass fraction min/max = 1/1
DILUPBiCGStab:  Solving for h, Initial residual = 2.72114e-06, Final residual = 7.04641e-23, No Iterations 1
max/min cf_own:1507.98/1507.93
max/min cf_nei:1507.98/1507.93
max/min alpha_own: 0.00196822/0
max/min alpha_nei: 1.31768e-14/-0
DILUPBiCGStab:  Solving for p, Initial residual = 1.42395e-08, Final residual = 5.43863e-25, No Iterations 1
max(mag(U)): 0.0231268
max/min p: 1e+07/1e+06
diagonal:  Solving for rho, Initial residual = 0, Final residual = 0, No Iterations 0
rho max/min : 1002.15 / 998.01
time step continuity errors : sum local = 4.36238e-17, global = -3.62347e-17, cumulative = 0
max/min FaceSonicCourant: 0.00500305/0.00250149
max/min FaceSonicCourant: 0.00500305/0.00250149
PIMPLE: iteration 3
diagonal:  Solving for rho, Initial residual = 0, Final residual = 0, No Iterations 0
rho max/min : 1002.15 / 998.01
Creating matrix for fvOptions
DILUPBiCGStab:  Solving for Y.Liq, Initial residual = 0.151205, Final residual = 3.48719e-18, No Iterations 1
Mass fraction min/max = 1/1
DILUPBiCGStab:  Solving for h, Initial residual = 0.000764686, Final residual = 2.81904e-20, No Iterations 1
max/min cf_own:1507.98/1507.93
max/min cf_nei:1507.98/1507.93
max/min alpha_own: 0.00196824/0
max/min alpha_nei: 1.32545e-14/-0
DILUPBiCGStab:  Solving for p, Initial residual = 5.52599e-11, Final residual = 4.2145e-26, No Iterations 1
max(mag(U)): 0.0231488
max/min p: 1e+07/1e+06
diagonal:  Solving for rho, Initial residual = 0, Final residual = 0, No Iterations 0
rho max/min : 1002.15 / 998.01
time step continuity errors : sum local = 8.68213e-17, global = -6.20964e-17, cumulative = 0
max/min FaceSonicCourant: 0.00500305/0.00250149
max/min FaceSonicCourant: 0.00500305/0.00250149
ExecutionTime = 0.04 s  ClockTime = 0 s

Mean and max Characteristic Courant Numbers = 0.00250153 0.00500305
Courant Number max: 2.48615e-06
deltaT = 2.48833e-09
Time = 8.92998e-09

PIMPLE: iteration 1
diagonal:  Solving for rho, Initial residual = 0, Final residual = 0, No Iterations 0
rho max/min : 1002.15 / 998.01
Creating matrix for fvOptions
DILUPBiCGStab:  Solving for Y.Liq, Initial residual = 0.153591, Final residual = 1.84015e-18, No Iterations 1
Mass fraction min/max = 1/1
DILUPBiCGStab:  Solving for h, Initial residual = 0.161647, Final residual = 2.91029e-17, No Iterations 1
max/min cf_own:1507.98/1507.93
max/min cf_nei:1507.98/1507.93
max/min alpha_own: 0.0019682/0
max/min alpha_nei: 1.32084e-14/-0
DILUPBiCGStab:  Solving for p, Initial residual = 3.58997e-06, Final residual = 6.68298e-22, No Iterations 1
max(mag(U)): 0.0320207
max/min p: 1e+07/1e+06
diagonal:  Solving for rho, Initial residual = 0, Final residual = 0, No Iterations 0
rho max/min : 1002.15 / 998.01
time step continuity errors : sum local = 1.13962e-16, global = 7.44588e-17, cumulative = 0
max/min FaceSonicCourant: 0.00600366/0.00300178
max/min FaceSonicCourant: 0.00600366/0.00300178
PIMPLE: iteration 2
diagonal:  Solving for rho, Initial residual = 0, Final residual = 0, No Iterations 0
rho max/min : 1002.15 / 998.01
Creating matrix for fvOptions
DILUPBiCGStab:  Solving for Y.Liq, Initial residual = 0.0644391, Final residual = 3.97455e-19, No Iterations 1
Mass fraction min/max = 1/1
DILUPBiCGStab:  Solving for h, Initial residual = 3.1684e-06, Final residual = 3.33966e-22, No Iterations 1
max/min cf_own:1507.98/1507.93
max/min cf_nei:1507.98/1507.93
max/min alpha_own: 0.00196568/0
max/min alpha_nei: 1.32458e-14/-0
DILUPBiCGStab:  Solving for p, Initial residual = 2.04389e-08, Final residual = 1.96175e-24, No Iterations 1
max(mag(U)): 0.0320208
max/min p: 1e+07/1e+06
diagonal:  Solving for rho, Initial residual = 0, Final residual = 0, No Iterations 0
rho max/min : 1002.15 / 998.01
time step continuity errors : sum local = 7.53114e-17, global = 1.96094e-17, cumulative = 0
max/min FaceSonicCourant: 0.00600366/0.00300178
max/min FaceSonicCourant: 0.00600366/0.00300178
PIMPLE: iteration 3
diagonal:  Solving for rho, Initial residual = 0, Final residual = 0, No Iterations 0
rho max/min : 1002.15 / 998.01
Creating matrix for fvOptions
DILUPBiCGStab:  Solving for Y.Liq, Initial residual = 0.0210136, Final residual = 4.11702e-19, No Iterations 1
Mass fraction min/max = 1/1
DILUPBiCGStab:  Solving for h, Initial residual = 0.000792062, Final residual = 2.46028e-20, No Iterations 1
max/min cf_own:1507.98/1507.93
max/min cf_nei:1507.98/1507.93
max/min alpha_own: 0.00196572/0
max/min alpha_nei: 1.32365e-14/-0
DILUPBiCGStab:  Solving for p, Initial residual = 7.96986e-11, Final residual = 1.56044e-26, No Iterations 1
max(mag(U)): 0.0320524
max/min p: 1e+07/1e+06
diagonal:  Solving for rho, Initial residual = 0, Final residual = 0, No Iterations 0
rho max/min : 1002.15 / 998.01
time step continuity errors : sum local = 1.13393e-16, global = 7.01959e-17, cumulative = 0
max/min FaceSonicCourant: 0.00600366/0.00300178
max/min FaceSonicCourant: 0.00600366/0.00300178
ExecutionTime = 0.04 s  ClockTime = 0 s

Mean and max Characteristic Courant Numbers = 0.00300184 0.00600366
Courant Number max: 2.98611e-06
deltaT = 2.98597e-09
Time = 1.19159e-08

PIMPLE: iteration 1
diagonal:  Solving for rho, Initial residual = 0, Final residual = 0, No Iterations 0
rho max/min : 1002.15 / 998.01
Creating matrix for fvOptions
DILUPBiCGStab:  Solving for Y.Liq, Initial residual = 0.0950745, Final residual = 2.54347e-19, No Iterations 1
Mass fraction min/max = 1/1
DILUPBiCGStab:  Solving for h, Initial residual = 0.142921, Final residual = 1.00838e-19, No Iterations 1
max/min cf_own:1507.99/1507.92
max/min cf_nei:1507.99/1507.92
max/min alpha_own: 0.00196567/0
max/min alpha_nei: 1.32909e-14/-0
DILUPBiCGStab:  Solving for p, Initial residual = 4.30241e-06, Final residual = 8.0355e-22, No Iterations 1
max(mag(U)): 0.0426626
max/min p: 1e+07/1e+06
diagonal:  Solving for rho, Initial residual = 0, Final residual = 0, No Iterations 0
rho max/min : 1002.15 / 998.01
time step continuity errors : sum local = 9.27893e-17, global = -1.23624e-17, cumulative = 0
max/min FaceSonicCourant: 0.00720432/0.00360207
max/min FaceSonicCourant: 0.00720432/0.00360207
PIMPLE: iteration 2
diagonal:  Solving for rho, Initial residual = 0, Final residual = 0, No Iterations 0
rho max/min : 1002.15 / 998.01
Creating matrix for fvOptions
DILUPBiCGStab:  Solving for Y.Liq, Initial residual = 0.0367965, Final residual = 1.20154e-19, No Iterations 1
Mass fraction min/max = 1/1
DILUPBiCGStab:  Solving for h, Initial residual = 4.00134e-06, Final residual = 2.58405e-22, No Iterations 1
max/min cf_own:1507.99/1507.92
max/min cf_nei:1507.99/1507.92
max/min alpha_own: 0.00196268/0
max/min alpha_nei: 1.32874e-14/-0
DILUPBiCGStab:  Solving for p, Initial residual = 2.93177e-08, Final residual = 3.91429e-24, No Iterations 1
max(mag(U)): 0.0426629
max/min p: 1e+07/1e+06
diagonal:  Solving for rho, Initial residual = 0, Final residual = 0, No Iterations 0
rho max/min : 1002.15 / 998.01
time step continuity errors : sum local = 7.04801e-17, global = 1.9041e-17, cumulative = 0
max/min FaceSonicCourant: 0.00720432/0.00360207
max/min FaceSonicCourant: 0.00720432/0.00360207
PIMPLE: iteration 3
diagonal:  Solving for rho, Initial residual = 0, Final residual = 0, No Iterations 0
rho max/min : 1002.15 / 998.01
Creating matrix for fvOptions
DILUPBiCGStab:  Solving for Y.Liq, Initial residual = 0.0371179, Final residual = 1.10247e-31, No Iterations 1
Mass fraction min/max = 1/1
DILUPBiCGStab:  Solving for h, Initial residual = 0.00085197, Final residual = 4.39337e-20, No Iterations 1
max/min cf_own:1507.99/1507.92
max/min cf_nei:1507.99/1507.92
max/min alpha_own: 0.00196273/0
max/min alpha_nei: 1.32102e-14/-0
DILUPBiCGStab:  Solving for p, Initial residual = 1.17166e-10, Final residual = 6.40642e-27, No Iterations 1
max(mag(U)): 0.0427082
max/min p: 1e+07/1e+06
diagonal:  Solving for rho, Initial residual = 0, Final residual = 0, No Iterations 0
rho max/min : 1002.15 / 998.01
time step continuity errors : sum local = 9.09421e-17, global = -9.6626e-18, cumulative = 0
max/min FaceSonicCourant: 0.00720432/0.00360207
max/min FaceSonicCourant: 0.00720432/0.00360207
ExecutionTime = 0.05 s  ClockTime = 0 s

Mean and max Characteristic Courant Numbers = 0.00360217 0.00720432
Courant Number max: 3.58725e-06
deltaT = 3.58316e-09
Time = 1.54991e-08

PIMPLE: iteration 1
diagonal:  Solving for rho, Initial residual = 0, Final residual = 0, No Iterations 0
rho max/min : 1002.15 / 998.01
Creating matrix for fvOptions
DILUPBiCGStab:  Solving for Y.Liq, Initial residual = 0.176699, Final residual = 5.0193e-29, No Iterations 1
Mass fraction min/max = 1/1
DILUPBiCGStab:  Solving for h, Initial residual = 0.130305, Final residual = 2.35719e-17, No Iterations 1
max/min cf_own:1508/1507.91
max/min cf_nei:1508/1507.91
max/min alpha_own: 0.00196266/0
max/min alpha_nei: 1.32129e-14/-0
DILUPBiCGStab:  Solving for p, Initial residual = 5.15506e-06, Final residual = 9.75547e-22, No Iterations 1
max(mag(U)): 0.0553889
max/min p: 1e+07/1e+06
diagonal:  Solving for rho, Initial residual = 0, Final residual = 0, No Iterations 0
rho max/min : 1002.15 / 998.01
time step continuity errors : sum local = 1.51333e-16, global = -1.74779e-17, cumulative = 0
max/min FaceSonicCourant: 0.00864519/0.00432245
max/min FaceSonicCourant: 0.00864519/0.00432245
PIMPLE: iteration 2
diagonal:  Solving for rho, Initial residual = 0, Final residual = 0, No Iterations 0
rho max/min : 1002.15 / 998.01
Creating matrix for fvOptions
DILUPBiCGStab:  Solving for Y.Liq, Initial residual = 0.0601977, Final residual = 2.37824e-26, No Iterations 1
Mass fraction min/max = 1/1
DILUPBiCGStab:  Solving for h, Initial residual = 5.1817e-06, Final residual = 3.47285e-22, No Iterations 1
max/min cf_own:1508/1507.91
max/min cf_nei:1508/1507.91
max/min alpha_own: 0.00195911/0
max/min alpha_nei: 1.77793e-14/-0
DILUPBiCGStab:  Solving for p, Initial residual = 4.20227e-08, Final residual = 3.75922e-24, No Iterations 1
max(mag(U)): 0.0553893
max/min p: 1e+07/1e+06
diagonal:  Solving for rho, Initial residual = 0, Final residual = 0, No Iterations 0
rho max/min : 1002.15 / 998.01
time step continuity errors : sum local = 1.02594e-16, global = -4.8313e-17, cumulative = 0
max/min FaceSonicCourant: 0.00864519/0.00432245
max/min FaceSonicCourant: 0.00864519/0.00432245
PIMPLE: iteration 3
diagonal:  Solving for rho, Initial residual = 0, Final residual = 0, No Iterations 0
rho max/min : 1002.15 / 998.01
Creating matrix for fvOptions
DILUPBiCGStab:  Solving for Y.Liq, Initial residual = 0.060306, Final residual = 3.9972e-19, No Iterations 1
Mass fraction min/max = 1/1
DILUPBiCGStab:  Solving for h, Initial residual = 0.000939643, Final residual = 1.62584e-19, No Iterations 1
max/min cf_own:1508/1507.91
max/min cf_nei:1508/1507.91
max/min alpha_own: 0.00195919/0
max/min alpha_nei: 1.77146e-14/-0
DILUPBiCGStab:  Solving for p, Initial residual = 2.12319e-10, Final residual = 2.93593e-26, No Iterations 1
max(mag(U)): 0.0554543
max/min p: 1e+07/1e+06
diagonal:  Solving for rho, Initial residual = 0, Final residual = 0, No Iterations 0
rho max/min : 1002.15 / 998.01
time step continuity errors : sum local = 1.46786e-16, global = -2.4867e-17, cumulative = 0
max/min FaceSonicCourant: 0.00864519/0.00432245
max/min FaceSonicCourant: 0.00864519/0.00432245
ExecutionTime = 0.05 s  ClockTime = 0 s

Mean and max Characteristic Courant Numbers = 0.00432261 0.00864519
Courant Number max: 4.31047e-06
deltaT = 4.29985e-09
Time = 1.9799e-08

PIMPLE: iteration 1
diagonal:  Solving for rho, Initial residual = 0, Final residual = 0, No Iterations 0
rho max/min : 1002.15 / 998.01
Creating matrix for fvOptions
DILUPBiCGStab:  Solving for Y.Liq, Initial residual = 0.121528, Final residual = 2.18447e-18, No Iterations 1
Mass fraction min/max = 1/1
DILUPBiCGStab:  Solving for h, Initial residual = 0.121343, Final residual = 6.74248e-22, No Iterations 1
max/min cf_own:1508.02/1507.89
max/min cf_nei:1508.02/1507.89
max/min alpha_own: 0.0019591/0
max/min alpha_nei: 1.33221e-14/-0
DILUPBiCGStab:  Solving for p, Initial residual = 6.17501e-06, Final residual = 1.81153e-23, No Iterations 1
max(mag(U)): 0.0705976
max/min p: 1e+07/1e+06
diagonal:  Solving for rho, Initial residual = 0, Final residual = 0, No Iterations 0
rho max/min : 1002.15 / 998.01
time step continuity errors : sum local = 8.90948e-17, global = -1.4636e-17, cumulative = 0
max/min FaceSonicCourant: 0.0103744/0.00518697
max/min FaceSonicCourant: 0.0103744/0.00518697
PIMPLE: iteration 2
diagonal:  Solving for rho, Initial residual = 0, Final residual = 0, No Iterations 0
rho max/min : 1002.15 / 998.01
Creating matrix for fvOptions
DILUPBiCGStab:  Solving for Y.Liq, Initial residual = 0.0229008, Final residual = 3.63214e-19, No Iterations 1
Mass fraction min/max = 1/1
DILUPBiCGStab:  Solving for h, Initial residual = 6.85276e-06, Final residual = 2.98556e-22, No Iterations 1
max/min cf_own:1508.02/1507.89
max/min cf_nei:1508.02/1507.89
max/min alpha_own: 0.0019549/0
max/min alpha_nei: 1.76094e-14/-0
DILUPBiCGStab:  Solving for p, Initial residual = 6.01803e-08, Final residual = 3.53135e-26, No Iterations 1
max(mag(U)): 0.0705982
max/min p: 1e+07/1e+06
diagonal:  Solving for rho, Initial residual = 0, Final residual = 0, No Iterations 0
rho max/min : 1002.15 / 998.01
time step continuity errors : sum local = 5.24338e-17, global = 1.27887e-18, cumulative = 0
max/min FaceSonicCourant: 0.0103744/0.00518697
max/min FaceSonicCourant: 0.0103744/0.00518697
PIMPLE: iteration 3
diagonal:  Solving for rho, Initial residual = 0, Final residual = 0, No Iterations 0
rho max/min : 1002.15 / 998.01
Creating matrix for fvOptions
DILUPBiCGStab:  Solving for Y.Liq, Initial residual = 0.0657174, Final residual = 5.47207e-19, No Iterations 1
Mass fraction min/max = 1/1
DILUPBiCGStab:  Solving for h, Initial residual = 0.00105452, Final residual = 7.68951e-20, No Iterations 1
max/min cf_own:1508.02/1507.89
max/min cf_nei:1508.02/1507.89
max/min alpha_own: 0.00195501/0
max/min alpha_nei: 1.75406e-14/-0
DILUPBiCGStab:  Solving for p, Initial residual = 3.802e-10, Final residual = 1.3222e-26, No Iterations 1
max(mag(U)): 0.0706915
max/min p: 1e+07/1e+06
diagonal:  Solving for rho, Initial residual = 0, Final residual = 0, No Iterations 0
rho max/min : 1002.15 / 998.01
time step continuity errors : sum local = 8.88106e-17, global = 4.40501e-18, cumulative = 0
max/min FaceSonicCourant: 0.0103744/0.00518697
max/min FaceSonicCourant: 0.0103744/0.00518697
ExecutionTime = 0.06 s  ClockTime = 0 s

Mean and max Characteristic Courant Numbers = 0.0051872 0.0103744
Courant Number max: 5.18106e-06
deltaT = 5.15974e-09
Time = 2.49587e-08

PIMPLE: iteration 1
diagonal:  Solving for rho, Initial residual = 0, Final residual = 0, No Iterations 0
rho max/min : 1002.15 / 998.01
Creating matrix for fvOptions
DILUPBiCGStab:  Solving for Y.Liq, Initial residual = 0.21372, Final residual = 5.56576e-18, No Iterations 1
Mass fraction min/max = 1/1
DILUPBiCGStab:  Solving for h, Initial residual = 0.114724, Final residual = 1.2668e-21, No Iterations 1
max/min cf_own:1508.03/1507.88
max/min cf_nei:1508.03/1507.88
max/min alpha_own: 0.0019549/0
max/min alpha_nei: 2.18371e-14/-0
DILUPBiCGStab:  Solving for p, Initial residual = 7.39409e-06, Final residual = 6.91561e-22, No Iterations 1
max(mag(U)): 0.088788
max/min p: 1e+07/1e+06
diagonal:  Solving for rho, Initial residual = 0, Final residual = 0, No Iterations 0
rho max/min : 1002.15 / 998.01
time step continuity errors : sum local = 1.33997e-16, global = 4.50448e-17, cumulative = 0
max/min FaceSonicCourant: 0.012449/0.00622419
max/min FaceSonicCourant: 0.012449/0.00622419
PIMPLE: iteration 2
diagonal:  Solving for rho, Initial residual = 0, Final residual = 0, No Iterations 0
rho max/min : 1002.15 / 998.01
Creating matrix for fvOptions
DILUPBiCGStab:  Solving for Y.Liq, Initial residual = 0.0740953, Final residual = 2.487e-18, No Iterations 1
Mass fraction min/max = 1/1
DILUPBiCGStab:  Solving for h, Initial residual = 9.21272e-06, Final residual = 1.29603e-21, No Iterations 1
max/min cf_own:1508.03/1507.88
max/min cf_nei:1508.03/1507.88
max/min alpha_own: 0.00194994/0
max/min alpha_nei: 3.08167e-14/-0
DILUPBiCGStab:  Solving for p, Initial residual = 8.6085e-08, Final residual = 1.08057e-23, No Iterations 1
max(mag(U)): 0.0887866
max/min p: 1e+07/1e+06
diagonal:  Solving for rho, Initial residual = 0, Final residual = 0, No Iterations 0
rho max/min : 1002.15 / 998.01
time step continuity errors : sum local = 9.34998e-17, global = 4.8313e-18, cumulative = 0
max/min FaceSonicCourant: 0.012449/0.00622419
max/min FaceSonicCourant: 0.012449/0.00622419
PIMPLE: iteration 3
diagonal:  Solving for rho, Initial residual = 0, Final residual = 0, No Iterations 0
rho max/min : 1002.15 / 998.01
Creating matrix for fvOptions
DILUPBiCGStab:  Solving for Y.Liq, Initial residual = 0.0924756, Final residual = 2.61454e-18, No Iterations 1
Mass fraction min/max = 1/1
DILUPBiCGStab:  Solving for h, Initial residual = 0.00119816, Final residual = 5.70523e-22, No Iterations 1
max/min cf_own:1508.03/1507.88
max/min cf_nei:1508.03/1507.88
max/min alpha_own: 0.00195009/0
max/min alpha_nei: 3.06226e-14/-0
DILUPBiCGStab:  Solving for p, Initial residual = 6.73623e-10, Final residual = 7.66999e-26, No Iterations 1
max(mag(U)): 0.0888921
max/min p: 1e+07/1e+06
diagonal:  Solving for rho, Initial residual = 0, Final residual = 0, No Iterations 0
rho max/min : 1002.15 / 998.01
time step continuity errors : sum local = 1.14814e-16, global = 1.67674e-17, cumulative = 0
max/min FaceSonicCourant: 0.012449/0.00622419
max/min FaceSonicCourant: 0.012449/0.00622419
ExecutionTime = 0.07 s  ClockTime = 0 s

Mean and max Characteristic Courant Numbers = 0.00622453 0.012449
Courant Number max: 6.22947e-06
deltaT = 6.19156e-09
Time = 3.11503e-08

PIMPLE: iteration 1
diagonal:  Solving for rho, Initial residual = 0, Final residual = 0, No Iterations 0
rho max/min : 1002.15 / 998.01
Creating matrix for fvOptions
DILUPBiCGStab:  Solving for Y.Liq, Initial residual = 0.165398, Final residual = 9.98817e-19, No Iterations 1
Mass fraction min/max = 1/1
DILUPBiCGStab:  Solving for h, Initial residual = 0.109697, Final residual = 1.07255e-17, No Iterations 1
max/min cf_own:1508.05/1507.86
max/min cf_nei:1508.05/1507.86
max/min alpha_own: 0.00194995/0
max/min alpha_nei: 3.04898e-14/-0
DILUPBiCGStab:  Solving for p, Initial residual = 8.8504e-06, Final residual = 1.67281e-21, No Iterations 1
max(mag(U)): 0.110525
max/min p: 1e+07/1e+06
diagonal:  Solving for rho, Initial residual = 0, Final residual = 0, No Iterations 0
rho max/min : 1002.15 / 998.01
time step continuity errors : sum local = 1.32861e-16, global = -4.27712e-17, cumulative = 0
max/min FaceSonicCourant: 0.0149385/0.00746878
max/min FaceSonicCourant: 0.0149385/0.00746878
PIMPLE: iteration 2
diagonal:  Solving for rho, Initial residual = 0, Final residual = 0, No Iterations 0
rho max/min : 1002.15 / 998.01
Creating matrix for fvOptions
DILUPBiCGStab:  Solving for Y.Liq, Initial residual = 0.0737765, Final residual = 1.13536e-18, No Iterations 1
Mass fraction min/max = 1/1
DILUPBiCGStab:  Solving for h, Initial residual = 1.25357e-05, Final residual = 2.91504e-22, No Iterations 1
max/min cf_own:1508.05/1507.86
max/min cf_nei:1508.05/1507.86
max/min alpha_own: 0.00194412/0
max/min alpha_nei: 3.53156e-14/-0
DILUPBiCGStab:  Solving for p, Initial residual = 1.2298e-07, Final residual = 1.64635e-23, No Iterations 1
max(mag(U)): 0.110522
max/min p: 1e+07/1e+06
diagonal:  Solving for rho, Initial residual = 0, Final residual = 0, No Iterations 0
rho max/min : 1002.15 / 998.01
time step continuity errors : sum local = 1.05578e-16, global = -3.08351e-17, cumulative = 0
max/min FaceSonicCourant: 0.0149385/0.00746878
max/min FaceSonicCourant: 0.0149385/0.00746878
PIMPLE: iteration 3
diagonal:  Solving for rho, Initial residual = 0, Final residual = 0, No Iterations 0
rho max/min : 1002.15 / 998.01
Creating matrix for fvOptions
DILUPBiCGStab:  Solving for Y.Liq, Initial residual = 0.113056, Final residual = 2.02448e-18, No Iterations 1
Mass fraction min/max = 1/1
DILUPBiCGStab:  Solving for h, Initial residual = 0.0013736, Final residual = 2.10102e-19, No Iterations 1
max/min cf_own:1508.05/1507.86
max/min cf_nei:1508.05/1507.86
max/min alpha_own: 0.00194434/0
max/min alpha_nei: 3.05506e-14/-0
DILUPBiCGStab:  Solving for p, Initial residual = 1.18467e-09, Final residual = 1.90172e-25, No Iterations 1
max(mag(U)): 0.110613
max/min p: 1e+07/1e+06
diagonal:  Solving for rho, Initial residual = 0, Final residual = 0, No Iterations 0
rho max/min : 1002.15 / 998.01
time step continuity errors : sum local = 1.18935e-16, global = -2.96983e-17, cumulative = 0
max/min FaceSonicCourant: 0.0149385/0.00746879
max/min FaceSonicCourant: 0.0149385/0.00746879
ExecutionTime = 0.07 s  ClockTime = 0 s

Mean and max Characteristic Courant Numbers = 0.00746929 0.0149385
Courant Number max: 7.49326e-06
deltaT = 7.42987e-09
Time = 3.85801e-08

PIMPLE: iteration 1
diagonal:  Solving for rho, Initial residual = 0, Final residual = 0, No Iterations 0
rho max/min : 1002.15 / 998.01
Creating matrix for fvOptions
DILUPBiCGStab:  Solving for Y.Liq, Initial residual = 0.307332, Final residual = 1.81862e-18, No Iterations 1
Mass fraction min/max = 1/1
DILUPBiCGStab:  Solving for h, Initial residual = 0.105792, Final residual = 1.88175e-23, No Iterations 1
max/min cf_own:1508.07/1507.83
max/min cf_nei:1508.07/1507.83
max/min alpha_own: 0.00194414/0
max/min alpha_nei: 3.08952e-14/-0
DILUPBiCGStab:  Solving for p, Initial residual = 1.05891e-05, Final residual = 3.16089e-23, No Iterations 1
max(mag(U)): 0.136458
max/min p: 1e+07/1e+06
diagonal:  Solving for rho, Initial residual = 0, Final residual = 0, No Iterations 0
rho max/min : 1002.15 / 998.01
time step continuity errors : sum local = 1.43092e-16, global = -5.44232e-17, cumulative = 0
max/min FaceSonicCourant: 0.0179262/0.00896241
max/min FaceSonicCourant: 0.0179262/0.00896241
PIMPLE: iteration 2
diagonal:  Solving for rho, Initial residual = 0, Final residual = 0, No Iterations 0
rho max/min : 1002.15 / 998.01
Creating matrix for fvOptions
DILUPBiCGStab:  Solving for Y.Liq, Initial residual = 0.192558, Final residual = 1.65242e-18, No Iterations 1
Mass fraction min/max = 1/1
DILUPBiCGStab:  Solving for h, Initial residual = 1.71999e-05, Final residual = 6.80312e-23, No Iterations 1
max/min cf_own:1508.07/1507.83
max/min cf_nei:1508.07/1507.83
max/min alpha_own: 0.00193733/0
max/min alpha_nei: 3.95538e-14/-0
DILUPBiCGStab:  Solving for p, Initial residual = 1.75426e-07, Final residual = 3.52601e-23, No Iterations 1
max(mag(U)): 0.136454
max/min p: 1e+07/1e+06
diagonal:  Solving for rho, Initial residual = 0, Final residual = 0, No Iterations 0
rho max/min : 1002.15 / 998.01
time step continuity errors : sum local = 1.12825e-16, global = -4.85972e-17, cumulative = 0
max/min FaceSonicCourant: 0.0179262/0.00896241
max/min FaceSonicCourant: 0.0179262/0.00896241
PIMPLE: iteration 3
diagonal:  Solving for rho, Initial residual = 0, Final residual = 0, No Iterations 0
rho max/min : 1002.15 / 998.01
Creating matrix for fvOptions
DILUPBiCGStab:  Solving for Y.Liq, Initial residual = 0.224335, Final residual = 9.49811e-19, No Iterations 1
Mass fraction min/max = 1/1
DILUPBiCGStab:  Solving for h, Initial residual = 0.001585, Final residual = 1.381e-19, No Iterations 1
max/min cf_own:1508.07/1507.83
max/min cf_nei:1508.07/1507.83
max/min alpha_own: 0.00193763/0
max/min alpha_nei: 3.07218e-14/-0
DILUPBiCGStab:  Solving for p, Initial residual = 2.17577e-09, Final residual = 6.08055e-26, No Iterations 1
max(mag(U)): 0.136507
max/min p: 1e+07/1e+06
diagonal:  Solving for rho, Initial residual = 0, Final residual = 0, No Iterations 0
rho max/min : 1002.15 / 998.01
time step continuity errors : sum local = 1.30871e-16, global = -5.44232e-17, cumulative = 0
max/min FaceSonicCourant: 0.0179262/0.00896241
max/min FaceSonicCourant: 0.0179262/0.00896241
ExecutionTime = 0.08 s  ClockTime = 0 s

Mean and max Characteristic Courant Numbers = 0.00896315 0.0179262
Courant Number max: 9.01845e-06
deltaT = 8.91557e-09
Time = 4.74957e-08

PIMPLE: iteration 1
diagonal:  Solving for rho, Initial residual = 0, Final residual = 0, No Iterations 0
rho max/min : 1002.15 / 998.01
Creating matrix for fvOptions
DILUPBiCGStab:  Solving for Y.Liq, Initial residual = 0.177409, Final residual = 3.46714e-18, No Iterations 1
Mass fraction min/max = 1/1
DILUPBiCGStab:  Solving for h, Initial residual = 0.102696, Final residual = 9.67417e-18, No Iterations 1
max/min cf_own:1508.1/1507.81
max/min cf_nei:1508.1/1507.81
max/min alpha_own: 0.00193736/0
max/min alpha_nei: 3.92313e-14/-0
DILUPBiCGStab:  Solving for p, Initial residual = 1.26626e-05, Final residual = 3.73447e-23, No Iterations 1
max(mag(U)): 0.16736
max/min p: 1e+07/1e+06
diagonal:  Solving for rho, Initial residual = 0, Final residual = 0, No Iterations 0
rho max/min : 1002.15 / 998.01
time step continuity errors : sum local = 1.04157e-16, global = 4.26291e-19, cumulative = 0
max/min FaceSonicCourant: 0.0215109/0.0107544
max/min FaceSonicCourant: 0.0215109/0.0107544
PIMPLE: iteration 2
diagonal:  Solving for rho, Initial residual = 0, Final residual = 0, No Iterations 0
rho max/min : 1002.15 / 998.01
Creating matrix for fvOptions
DILUPBiCGStab:  Solving for Y.Liq, Initial residual = 0.123625, Final residual = 2.58693e-18, No Iterations 1
Mass fraction min/max = 1/1
DILUPBiCGStab:  Solving for h, Initial residual = 2.35063e-05, Final residual = 1.16789e-21, No Iterations 1
max/min cf_own:1508.1/1507.81
max/min cf_nei:1508.1/1507.81
max/min alpha_own: 0.00192943/0
max/min alpha_nei: 3.44095e-14/-0
DILUPBiCGStab:  Solving for p, Initial residual = 2.49812e-07, Final residual = 3.74955e-23, No Iterations 1
max(mag(U)): 0.167354
max/min p: 1e+07/1e+06
diagonal:  Solving for rho, Initial residual = 0, Final residual = 0, No Iterations 0
rho max/min : 1002.15 / 998.01
time step continuity errors : sum local = 7.34642e-17, global = -3.83662e-18, cumulative = 0
max/min FaceSonicCourant: 0.0215109/0.0107544
max/min FaceSonicCourant: 0.0215109/0.0107544
PIMPLE: iteration 3
diagonal:  Solving for rho, Initial residual = 0, Final residual = 0, No Iterations 0
rho max/min : 1002.15 / 998.01
Creating matrix for fvOptions
DILUPBiCGStab:  Solving for Y.Liq, Initial residual = 0.142305, Final residual = 2.28765e-18, No Iterations 1
Mass fraction min/max = 1/1
DILUPBiCGStab:  Solving for h, Initial residual = 0.00183748, Final residual = 2.71892e-19, No Iterations 1
max/min cf_own:1508.1/1507.81
max/min cf_nei:1508.1/1507.81
max/min alpha_own: 0.00192986/0
max/min alpha_nei: 3.07198e-14/-0
DILUPBiCGStab:  Solving for p, Initial residual = 3.92345e-09, Final residual = 7.35252e-26, No Iterations 1
max(mag(U)): 0.167336
max/min p: 1e+07/1e+06
diagonal:  Solving for rho, Initial residual = 0, Final residual = 0, No Iterations 0
rho max/min : 1002.15 / 998.01
time step continuity errors : sum local = 9.84732e-17, global = -4.26291e-19, cumulative = 0
max/min FaceSonicCourant: 0.0215109/0.0107544
max/min FaceSonicCourant: 0.0215109/0.0107544
ExecutionTime = 0.08 s  ClockTime = 0 s

Mean and max Characteristic Courant Numbers = 0.0107555 0.0215109
Courant Number max: 1.08609e-05
deltaT = 1.06981e-08
Time = 5.81938e-08

PIMPLE: iteration 1
diagonal:  Solving for rho, Initial residual = 0, Final residual = 0, No Iterations 0
rho max/min : 1002.15 / 998.01
Creating matrix for fvOptions
DILUPBiCGStab:  Solving for Y.Liq, Initial residual = 0.136667, Final residual = 1.4803e-18, No Iterations 1
Mass fraction min/max = 1/1
DILUPBiCGStab:  Solving for h, Initial residual = 0.1002, Final residual = 4.55427e-21, No Iterations 1
max/min cf_own:1508.13/1507.78
max/min cf_nei:1508.13/1507.78
max/min alpha_own: 0.0019295/0
max/min alpha_nei: 3.50825e-14/-0
DILUPBiCGStab:  Solving for p, Initial residual = 1.51331e-05, Final residual = 3.04865e-21, No Iterations 1
max(mag(U)): 0.204127
max/min p: 1e+07/1e+06
diagonal:  Solving for rho, Initial residual = 0, Final residual = 0, No Iterations 0
rho max/min : 1002.15 / 998.01
time step continuity errors : sum local = 1.34992e-16, global = 5.39969e-17, cumulative = 0
max/min FaceSonicCourant: 0.0258116/0.0129043
max/min FaceSonicCourant: 0.0258116/0.0129043
PIMPLE: iteration 2
diagonal:  Solving for rho, Initial residual = 0, Final residual = 0, No Iterations 0
rho max/min : 1002.15 / 998.01
Creating matrix for fvOptions
DILUPBiCGStab:  Solving for Y.Liq, Initial residual = 0.10008, Final residual = 1.06667e-18, No Iterations 1
Mass fraction min/max = 1/1
DILUPBiCGStab:  Solving for h, Initial residual = 3.21926e-05, Final residual = 2.55259e-19, No Iterations 1
max/min cf_own:1508.13/1507.78
max/min cf_nei:1508.13/1507.78
max/min alpha_own: 0.00192033/0
max/min alpha_nei: 3.45118e-14/-0
DILUPBiCGStab:  Solving for p, Initial residual = 3.55002e-07, Final residual = 5.70778e-23, No Iterations 1
max(mag(U)): 0.204117
max/min p: 1e+07/1e+06
diagonal:  Solving for rho, Initial residual = 0, Final residual = 0, No Iterations 0
rho max/min : 1002.15 / 998.01
time step continuity errors : sum local = 1.09273e-16, global = 5.1297e-17, cumulative = 0
max/min FaceSonicCourant: 0.0258116/0.0129043
max/min FaceSonicCourant: 0.0258116/0.0129043
PIMPLE: iteration 3
diagonal:  Solving for rho, Initial residual = 0, Final residual = 0, No Iterations 0
rho max/min : 1002.15 / 998.01
Creating matrix for fvOptions
DILUPBiCGStab:  Solving for Y.Liq, Initial residual = 0.124601, Final residual = 1.15279e-18, No Iterations 1
Mass fraction min/max = 1/1
DILUPBiCGStab:  Solving for h, Initial residual = 0.00213672, Final residual = 1.99729e-19, No Iterations 1
max/min cf_own:1508.13/1507.78
max/min cf_nei:1508.13/1507.78
max/min alpha_own: 0.00192094/0
max/min alpha_nei: 3.40958e-14/-0
DILUPBiCGStab:  Solving for p, Initial residual = 6.97107e-09, Final residual = 7.93379e-25, No Iterations 1
max(mag(U)): 0.203982
max/min p: 1e+07/1e+06
diagonal:  Solving for rho, Initial residual = 0, Final residual = 0, No Iterations 0
rho max/min : 1002.15 / 998.01
time step continuity errors : sum local = 1.25045e-16, global = 4.8313e-17, cumulative = 0
max/min FaceSonicCourant: 0.0258116/0.0129043
max/min FaceSonicCourant: 0.0258116/0.0129043
ExecutionTime = 0.09 s  ClockTime = 0 s

Mean and max Characteristic Courant Numbers = 0.0129059 0.0258116
Courant Number max: 1.30903e-05
deltaT = 1.28377e-08
Time = 7.10316e-08

PIMPLE: iteration 1
diagonal:  Solving for rho, Initial residual = 0, Final residual = 0, No Iterations 0
rho max/min : 1002.15 / 998.01
Creating matrix for fvOptions
DILUPBiCGStab:  Solving for Y.Liq, Initial residual = 0.205047, Final residual = 2.97694e-18, No Iterations 1
Mass fraction min/max = 1/1
DILUPBiCGStab:  Solving for h, Initial residual = 0.0981649, Final residual = 9.03273e-21, No Iterations 1
max/min cf_own:1508.17/1507.74
max/min cf_nei:1508.17/1507.74
max/min alpha_own: 0.00192045/0
max/min alpha_nei: 3.76949e-14/-0
DILUPBiCGStab:  Solving for p, Initial residual = 1.80752e-05, Final residual = 3.36128e-24, No Iterations 1
max(mag(U)): 0.247797
max/min p: 1e+07/1e+06
diagonal:  Solving for rho, Initial residual = 0, Final residual = 0, No Iterations 0
rho max/min : 1002.15 / 998.01
time step continuity errors : sum local = 1.60428e-16, global = -4.30554e-17, cumulative = 0
max/min FaceSonicCourant: 0.030974/0.0154848
max/min FaceSonicCourant: 0.030974/0.0154848
PIMPLE: iteration 2
diagonal:  Solving for rho, Initial residual = 0, Final residual = 0, No Iterations 0
rho max/min : 1002.15 / 998.01
Creating matrix for fvOptions
DILUPBiCGStab:  Solving for Y.Liq, Initial residual = 0.1571, Final residual = 2.51561e-18, No Iterations 1
Mass fraction min/max = 1/1
DILUPBiCGStab:  Solving for h, Initial residual = 4.4174e-05, Final residual = 2.07936e-21, No Iterations 1
max/min cf_own:1508.17/1507.74
max/min cf_nei:1508.17/1507.74
max/min alpha_own: 0.00190991/0
max/min alpha_nei: 3.96372e-14/-0
DILUPBiCGStab:  Solving for p, Initial residual = 5.0333e-07, Final residual = 4.20273e-23, No Iterations 1
max(mag(U)): 0.24778
max/min p: 1e+07/1e+06
diagonal:  Solving for rho, Initial residual = 0, Final residual = 0, No Iterations 0
rho max/min : 1002.15 / 998.01
time step continuity errors : sum local = 1.38118e-16, global = -5.20075e-17, cumulative = 0
max/min FaceSonicCourant: 0.030974/0.0154848
max/min FaceSonicCourant: 0.030974/0.0154848
PIMPLE: iteration 3
diagonal:  Solving for rho, Initial residual = 0, Final residual = 0, No Iterations 0
rho max/min : 1002.15 / 998.01
Creating matrix for fvOptions
DILUPBiCGStab:  Solving for Y.Liq, Initial residual = 0.17873, Final residual = 4.50977e-18, No Iterations 1
Mass fraction min/max = 1/1
DILUPBiCGStab:  Solving for h, Initial residual = 0.00248953, Final residual = 2.61231e-19, No Iterations 1
max/min cf_own:1508.17/1507.74
max/min cf_nei:1508.17/1507.74
max/min alpha_own: 0.00191077/0
max/min alpha_nei: 4.79694e-14/-0
DILUPBiCGStab:  Solving for p, Initial residual = 1.22343e-08, Final residual = 9.99604e-25, No Iterations 1
max(mag(U)): 0.247466
max/min p: 1e+07/1e+06
diagonal:  Solving for rho, Initial residual = 0, Final residual = 0, No Iterations 0
rho max/min : 1002.15 / 998.01
time step continuity errors : sum local = 1.48065e-16, global = -4.14923e-17, cumulative = 0
max/min FaceSonicCourant: 0.030974/0.0154848
max/min FaceSonicCourant: 0.030974/0.0154848
ExecutionTime = 0.1 s  ClockTime = 0 s

Mean and max Characteristic Courant Numbers = 0.015487 0.030974
Courant Number max: 1.57943e-05
deltaT = 1.54045e-08
Time = 8.6436e-08

PIMPLE: iteration 1
diagonal:  Solving for rho, Initial residual = 0, Final residual = 0, No Iterations 0
rho max/min : 1002.15 / 998.01
Creating matrix for fvOptions
DILUPBiCGStab:  Solving for Y.Liq, Initial residual = 0.16862, Final residual = 6.15678e-18, No Iterations 1
Mass fraction min/max = 1/1
DILUPBiCGStab:  Solving for h, Initial residual = 0.096473, Final residual = 1.90158e-17, No Iterations 1
max/min cf_own:1508.21/1507.69
max/min cf_nei:1508.21/1507.69
max/min alpha_own: 0.00191013/0
max/min alpha_nei: 4.25757e-14/-0
DILUPBiCGStab:  Solving for p, Initial residual = 2.15734e-05, Final residual = 2.33125e-21, No Iterations 1
max(mag(U)): 0.299549
max/min p: 1e+07/1e+06
diagonal:  Solving for rho, Initial residual = 0, Final residual = 0, No Iterations 0
rho max/min : 1002.15 / 998.01
time step continuity errors : sum local = 1.20782e-16, global = -1.9041e-17, cumulative = 0
max/min FaceSonicCourant: 0.0371669/0.0185802
max/min FaceSonicCourant: 0.0371669/0.0185802
PIMPLE: iteration 2
diagonal:  Solving for rho, Initial residual = 0, Final residual = 0, No Iterations 0
rho max/min : 1002.15 / 998.01
Creating matrix for fvOptions
DILUPBiCGStab:  Solving for Y.Liq, Initial residual = 0.083976, Final residual = 3.75783e-18, No Iterations 1
Mass fraction min/max = 1/1
DILUPBiCGStab:  Solving for h, Initial residual = 6.06147e-05, Final residual = 1.06031e-19, No Iterations 1
max/min cf_own:1508.21/1507.69
max/min cf_nei:1508.21/1507.69
max/min alpha_own: 0.00189813/0
max/min alpha_nei: 4.29092e-14/-0
DILUPBiCGStab:  Solving for p, Initial residual = 7.11573e-07, Final residual = 4.94728e-23, No Iterations 1
max(mag(U)): 0.299521
max/min p: 1e+07/1e+06
diagonal:  Solving for rho, Initial residual = 0, Final residual = 0, No Iterations 0
rho max/min : 1002.15 / 998.01
time step continuity errors : sum local = 9.86153e-17, global = 1.13678e-18, cumulative = 0
max/min FaceSonicCourant: 0.0371669/0.0185802
max/min FaceSonicCourant: 0.0371669/0.0185802
PIMPLE: iteration 3
diagonal:  Solving for rho, Initial residual = 0, Final residual = 0, No Iterations 0
rho max/min : 1002.15 / 998.01
Creating matrix for fvOptions
DILUPBiCGStab:  Solving for Y.Liq, Initial residual = 0.0888793, Final residual = 3.09852e-18, No Iterations 1
Mass fraction min/max = 1/1
DILUPBiCGStab:  Solving for h, Initial residual = 0.0029025, Final residual = 3.18297e-19, No Iterations 1
max/min cf_own:1508.21/1507.7
max/min cf_nei:1508.21/1507.7
max/min alpha_own: 0.00189934/0
max/min alpha_nei: 4.66911e-14/-0
DILUPBiCGStab:  Solving for p, Initial residual = 2.12302e-08, Final residual = 2.58409e-24, No Iterations 1
max(mag(U)): 0.298949
max/min p: 1e+07/1e+06
diagonal:  Solving for rho, Initial residual = 0, Final residual = 0, No Iterations 0
rho max/min : 1002.15 / 998.01
time step continuity errors : sum local = 1.13109e-16, global = -1.98936e-17, cumulative = 0
max/min FaceSonicCourant: 0.0371669/0.0185802
max/min FaceSonicCourant: 0.0371669/0.0185802
ExecutionTime = 0.1 s  ClockTime = 0 s

Mean and max Characteristic Courant Numbers = 0.0185835 0.0371669
Courant Number max: 1.90801e-05
deltaT = 1.84854e-08
Time = 1.04921e-07

PIMPLE: iteration 1
diagonal:  Solving for rho, Initial residual = 0, Final residual = 0, No Iterations 0
rho max/min : 1002.15 / 998.01
Creating matrix for fvOptions
DILUPBiCGStab:  Solving for Y.Liq, Initial residual = 0.136769, Final residual = 5.5016e-18, No Iterations 1
Mass fraction min/max = 1/1
DILUPBiCGStab:  Solving for h, Initial residual = 0.0950573, Final residual = 9.99199e-18, No Iterations 1
max/min cf_own:1508.27/1507.64
max/min cf_nei:1508.27/1507.64
max/min alpha_own: 0.00189848/0
max/min alpha_nei: 4.63213e-14/-0
DILUPBiCGStab:  Solving for p, Initial residual = 2.57315e-05, Final residual = 2.95275e-21, No Iterations 1
max(mag(U)): 0.360716
max/min p: 1e+07/1e+06
diagonal:  Solving for rho, Initial residual = 0, Final residual = 0, No Iterations 0
rho max/min : 1002.15 / 998.01
time step continuity errors : sum local = 1.05578e-16, global = -1.84726e-18, cumulative = 0
max/min FaceSonicCourant: 0.0446002/0.0222955
max/min FaceSonicCourant: 0.0446002/0.0222955
PIMPLE: iteration 2
diagonal:  Solving for rho, Initial residual = 0, Final residual = 0, No Iterations 0
rho max/min : 1002.15 / 998.01
Creating matrix for fvOptions
DILUPBiCGStab:  Solving for Y.Liq, Initial residual = 0.117329, Final residual = 4.95976e-18, No Iterations 1
Mass fraction min/max = 1/1
DILUPBiCGStab:  Solving for h, Initial residual = 8.30048e-05, Final residual = 6.54978e-21, No Iterations 1
max/min cf_own:1508.27/1507.64
max/min cf_nei:1508.27/1507.64
max/min alpha_own: 0.00188497/0
max/min alpha_nei: 4.55743e-14/-0
DILUPBiCGStab:  Solving for p, Initial residual = 1.00286e-06, Final residual = 4.00474e-23, No Iterations 1
max(mag(U)): 0.36067
max/min p: 1e+07/1e+06
diagonal:  Solving for rho, Initial residual = 0, Final residual = 0, No Iterations 0
rho max/min : 1002.15 / 998.01
time step continuity errors : sum local = 9.87574e-17, global = -4.9734e-18, cumulative = 0
max/min FaceSonicCourant: 0.0446002/0.0222955
max/min FaceSonicCourant: 0.0446002/0.0222955
PIMPLE: iteration 3
diagonal:  Solving for rho, Initial residual = 0, Final residual = 0, No Iterations 0
rho max/min : 1002.15 / 998.01
Creating matrix for fvOptions
DILUPBiCGStab:  Solving for Y.Liq, Initial residual = 0.132447, Final residual = 5.84903e-18, No Iterations 1
Mass fraction min/max = 1/1
DILUPBiCGStab:  Solving for h, Initial residual = 0.00338364, Final residual = 3.79113e-19, No Iterations 1
max/min cf_own:1508.26/1507.64
max/min cf_nei:1508.26/1507.64
max/min alpha_own: 0.00188666/0
max/min alpha_nei: 4.56466e-14/-0
DILUPBiCGStab:  Solving for p, Initial residual = 3.64692e-08, Final residual = 7.66062e-25, No Iterations 1
max(mag(U)): 0.359744
max/min p: 1e+07/1e+06
diagonal:  Solving for rho, Initial residual = 0, Final residual = 0, No Iterations 0
rho max/min : 1002.15 / 998.01
time step continuity errors : sum local = 9.5205e-17, global = -1.42097e-18, cumulative = 0
max/min FaceSonicCourant: 0.0446002/0.0222955
max/min FaceSonicCourant: 0.0446002/0.0222955
ExecutionTime = 0.11 s  ClockTime = 0 s

Mean and max Characteristic Courant Numbers = 0.0223002 0.0446002
Courant Number max: 2.30872e-05
deltaT = 2.21841e-08
Time = 1.27106e-07

PIMPLE: iteration 1
diagonal:  Solving for rho, Initial residual = 0, Final residual = 0, No Iterations 0
rho max/min : 1002.15 / 998.01
Creating matrix for fvOptions
DILUPBiCGStab:  Solving for Y.Liq, Initial residual = 0.137124, Final residual = 4.57952e-18, No Iterations 1
Mass fraction min/max = 1/1
DILUPBiCGStab:  Solving for h, Initial residual = 0.0938632, Final residual = 9.96684e-18, No Iterations 1
max/min cf_own:1508.33/1507.58
max/min cf_nei:1508.33/1507.58
max/min alpha_own: 0.00188552/0
max/min alpha_nei: 4.57184e-14/-0
DILUPBiCGStab:  Solving for p, Initial residual = 3.06711e-05, Final residual = 1.97685e-22, No Iterations 1
max(mag(U)): 0.432778
max/min p: 1e+07/1e+06
diagonal:  Solving for rho, Initial residual = 0, Final residual = 0, No Iterations 0
rho max/min : 1002.15 / 998.01
time step continuity errors : sum local = 1.36697e-16, global = 4.91656e-17, cumulative = 0
max/min FaceSonicCourant: 0.0535242/0.0267555
max/min FaceSonicCourant: 0.0535242/0.0267555
PIMPLE: iteration 2
diagonal:  Solving for rho, Initial residual = 0, Final residual = 0, No Iterations 0
rho max/min : 1002.15 / 998.01
Creating matrix for fvOptions
DILUPBiCGStab:  Solving for Y.Liq, Initial residual = 0.101828, Final residual = 3.47851e-18, No Iterations 1
Mass fraction min/max = 1/1
DILUPBiCGStab:  Solving for h, Initial residual = 0.000113249, Final residual = 6.90633e-21, No Iterations 1
max/min cf_own:1508.33/1507.58
max/min cf_nei:1508.33/1507.58
max/min alpha_own: 0.00187052/0
max/min alpha_nei: 4.4462e-14/-0
DILUPBiCGStab:  Solving for p, Initial residual = 1.40842e-06, Final residual = 1.9216e-22, No Iterations 1
max(mag(U)): 0.432702
max/min p: 1e+07/1e+06
diagonal:  Solving for rho, Initial residual = 0, Final residual = 0, No Iterations 0
rho max/min : 1002.15 / 998.01
time step continuity errors : sum local = 1.1382e-16, global = 4.58973e-17, cumulative = 0
max/min FaceSonicCourant: 0.0535242/0.0267555
max/min FaceSonicCourant: 0.0535242/0.0267555
PIMPLE: iteration 3
diagonal:  Solving for rho, Initial residual = 0, Final residual = 0, No Iterations 0
rho max/min : 1002.15 / 998.01
Creating matrix for fvOptions
DILUPBiCGStab:  Solving for Y.Liq, Initial residual = 0.121274, Final residual = 3.5372e-18, No Iterations 1
Mass fraction min/max = 1/1
DILUPBiCGStab:  Solving for h, Initial residual = 0.00394079, Final residual = 1.25989e-19, No Iterations 1
max/min cf_own:1508.32/1507.58
max/min cf_nei:1508.32/1507.58
max/min alpha_own: 0.00187287/0
max/min alpha_nei: 4.47884e-14/-0
DILUPBiCGStab:  Solving for p, Initial residual = 6.2033e-08, Final residual = 5.85743e-24, No Iterations 1
max(mag(U)): 0.43132
max/min p: 1e+07/1e+06
diagonal:  Solving for rho, Initial residual = 0, Final residual = 0, No Iterations 0
rho max/min : 1002.15 / 998.01
time step continuity errors : sum local = 1.38545e-16, global = 5.2718e-17, cumulative = 0
max/min FaceSonicCourant: 0.0535242/0.0267556
max/min FaceSonicCourant: 0.0535242/0.0267556
ExecutionTime = 0.12 s  ClockTime = 0 s

Mean and max Characteristic Courant Numbers = 0.0267622 0.0535242
Courant Number max: 2.79932e-05
deltaT = 2.66186e-08
Time = 1.53724e-07

PIMPLE: iteration 1
diagonal:  Solving for rho, Initial residual = 0, Final residual = 0, No Iterations 0
rho max/min : 1002.15 / 998.01
Creating matrix for fvOptions
DILUPBiCGStab:  Solving for Y.Liq, Initial residual = 0.136867, Final residual = 3.10371e-18, No Iterations 1
Mass fraction min/max = 1/1
DILUPBiCGStab:  Solving for h, Initial residual = 0.0928311, Final residual = 1.32518e-17, No Iterations 1
max/min cf_own:1508.39/1507.51
max/min cf_nei:1508.39/1507.51
max/min alpha_own: 0.00187136/0
max/min alpha_nei: 4.12296e-14/-0
DILUPBiCGStab:  Solving for p, Initial residual = 3.65284e-05, Final residual = 4.01541e-21, No Iterations 1
max(mag(U)): 0.517314
max/min p: 1e+07/1e+06
diagonal:  Solving for rho, Initial residual = 0, Final residual = 0, No Iterations 0
rho max/min : 1002.15 / 998.01
time step continuity errors : sum local = 1.35987e-16, global = -2.41565e-18, cumulative = 0
max/min FaceSonicCourant: 0.0642234/0.0321023
max/min FaceSonicCourant: 0.0642234/0.0321023
PIMPLE: iteration 2
diagonal:  Solving for rho, Initial residual = 0, Final residual = 0, No Iterations 0
rho max/min : 1002.15 / 998.01
Creating matrix for fvOptions
DILUPBiCGStab:  Solving for Y.Liq, Initial residual = 0.127252, Final residual = 2.70943e-18, No Iterations 1
Mass fraction min/max = 1/1
DILUPBiCGStab:  Solving for h, Initial residual = 0.000153581, Final residual = 4.66463e-20, No Iterations 1
max/min cf_own:1508.39/1507.51
max/min cf_nei:1508.39/1507.51
max/min alpha_own: 0.00185498/0
max/min alpha_nei: 4.89449e-14/-0
DILUPBiCGStab:  Solving for p, Initial residual = 1.96924e-06, Final residual = 2.86235e-22, No Iterations 1
max(mag(U)): 0.517187
max/min p: 1e+07/1e+06
diagonal:  Solving for rho, Initial residual = 0, Final residual = 0, No Iterations 0
rho max/min : 1002.15 / 998.01
time step continuity errors : sum local = 1.09983e-16, global = 3.41033e-18, cumulative = 0
max/min FaceSonicCourant: 0.0642234/0.0321023
max/min FaceSonicCourant: 0.0642234/0.0321023
PIMPLE: iteration 3
diagonal:  Solving for rho, Initial residual = 0, Final residual = 0, No Iterations 0
rho max/min : 1002.15 / 998.01
Creating matrix for fvOptions
DILUPBiCGStab:  Solving for Y.Liq, Initial residual = 0.135198, Final residual = 3.55841e-18, No Iterations 1
Mass fraction min/max = 1/1
DILUPBiCGStab:  Solving for h, Initial residual = 0.00457956, Final residual = 6.2697e-19, No Iterations 1
max/min cf_own:1508.39/1507.52
max/min cf_nei:1508.39/1507.52
max/min alpha_own: 0.00185824/0
max/min alpha_nei: 4.01758e-14/-0
DILUPBiCGStab:  Solving for p, Initial residual = 1.0439e-07, Final residual = 3.36609e-23, No Iterations 1
max(mag(U)): 0.515262
max/min p: 1e+07/1e+06
diagonal:  Solving for rho, Initial residual = 0, Final residual = 0, No Iterations 0
rho max/min : 1002.15 / 998.01
time step continuity errors : sum local = 1.25614e-16, global = -9.3784e-18, cumulative = 0
max/min FaceSonicCourant: 0.0642234/0.0321023
max/min FaceSonicCourant: 0.0642234/0.0321023
ExecutionTime = 0.12 s  ClockTime = 0 s

Mean and max Characteristic Courant Numbers = 0.0321118 0.0642234
Courant Number max: 3.40189e-05
deltaT = 3.19406e-08
Time = 1.85665e-07

PIMPLE: iteration 1
diagonal:  Solving for rho, Initial residual = 0, Final residual = 0, No Iterations 0
rho max/min : 1002.15 / 998.01
Creating matrix for fvOptions
DILUPBiCGStab:  Solving for Y.Liq, Initial residual = 0.106868, Final residual = 3.97969e-18, No Iterations 1
Mass fraction min/max = 1/1
DILUPBiCGStab:  Solving for h, Initial residual = 0.0919565, Final residual = 1.10427e-17, No Iterations 1
max/min cf_own:1508.48/1507.43
max/min cf_nei:1508.48/1507.43
max/min alpha_own: 0.00185628/0
max/min alpha_nei: 4.70728e-14/-0
DILUPBiCGStab:  Solving for p, Initial residual = 4.3482e-05, Final residual = 4.86937e-21, No Iterations 1
max(mag(U)): 0.615985
max/min p: 1e+07/1e+06
diagonal:  Solving for rho, Initial residual = 0, Final residual = 0, No Iterations 0
rho max/min : 1002.15 / 998.01
time step continuity errors : sum local = 1.29024e-16, global = -1.98936e-17, cumulative = 0
max/min FaceSonicCourant: 0.0770639/0.0385186
max/min FaceSonicCourant: 0.0770639/0.0385186
PIMPLE: iteration 2
diagonal:  Solving for rho, Initial residual = 0, Final residual = 0, No Iterations 0
rho max/min : 1002.15 / 998.01
Creating matrix for fvOptions
DILUPBiCGStab:  Solving for Y.Liq, Initial residual = 0.0949153, Final residual = 4.21508e-18, No Iterations 1
Mass fraction min/max = 1/1
DILUPBiCGStab:  Solving for h, Initial residual = 0.000206424, Final residual = 1.68806e-19, No Iterations 1
max/min cf_own:1508.47/1507.43
max/min cf_nei:1508.47/1507.43
max/min alpha_own: 0.00183875/0
max/min alpha_nei: 5.37611e-14/-0
DILUPBiCGStab:  Solving for p, Initial residual = 2.74099e-06, Final residual = 2.18032e-22, No Iterations 1
max(mag(U)): 0.615775
max/min p: 1e+07/1e+06
diagonal:  Solving for rho, Initial residual = 0, Final residual = 0, No Iterations 0
rho max/min : 1002.15 / 998.01
time step continuity errors : sum local = 1.03447e-16, global = -1.33571e-17, cumulative = 0
max/min FaceSonicCourant: 0.0770639/0.0385186
max/min FaceSonicCourant: 0.0770639/0.0385186
PIMPLE: iteration 3
diagonal:  Solving for rho, Initial residual = 0, Final residual = 0, No Iterations 0
rho max/min : 1002.15 / 998.01
Creating matrix for fvOptions
DILUPBiCGStab:  Solving for Y.Liq, Initial residual = 0.0957699, Final residual = 3.41896e-18, No Iterations 1
Mass fraction min/max = 1/1
DILUPBiCGStab:  Solving for h, Initial residual = 0.00530808, Final residual = 7.05942e-19, No Iterations 1
max/min cf_own:1508.47/1507.44
max/min cf_nei:1508.47/1507.44
max/min alpha_own: 0.00184323/0
max/min alpha_nei: 4.28808e-14/-0
DILUPBiCGStab:  Solving for p, Initial residual = 1.73805e-07, Final residual = 1.36101e-23, No Iterations 1
max(mag(U)): 0.613271
max/min p: 1e+07/1e+06
diagonal:  Solving for rho, Initial residual = 0, Final residual = 0, No Iterations 0
rho max/min : 1002.15 / 998.01
time step continuity errors : sum local = 1.20498e-16, global = -2.69984e-17, cumulative = 0
max/min FaceSonicCourant: 0.0770639/0.0385187
max/min FaceSonicCourant: 0.0770639/0.0385187
ExecutionTime = 0.13 s  ClockTime = 0 s

Mean and max Characteristic Courant Numbers = 0.0385321 0.0770639
Courant Number max: 4.14674e-05
deltaT = 3.83312e-08
Time = 2.23996e-07

PIMPLE: iteration 1
diagonal:  Solving for rho, Initial residual = 0, Final residual = 0, No Iterations 0
rho max/min : 1002.15 / 998.01
Creating matrix for fvOptions
DILUPBiCGStab:  Solving for Y.Liq, Initial residual = 0.148837, Final residual = 3.39952e-18, No Iterations 1
Mass fraction min/max = 1/1
DILUPBiCGStab:  Solving for h, Initial residual = 0.0912346, Final residual = 1.10133e-17, No Iterations 1
max/min cf_own:1508.57/1507.34
max/min cf_nei:1508.57/1507.34
max/min alpha_own: 0.00184072/0
max/min alpha_nei: 5.31057e-14/-0
DILUPBiCGStab:  Solving for p, Initial residual = 5.17495e-05, Final residual = 3.2943e-21, No Iterations 1
max(mag(U)): 0.73045
max/min p: 1e+07/1e+06
diagonal:  Solving for rho, Initial residual = 0, Final residual = 0, No Iterations 0
rho max/min : 1002.15 / 998.01
time step continuity errors : sum local = 1.47213e-16, global = 3.12613e-17, cumulative = 0
max/min FaceSonicCourant: 0.0924826/0.0462225
max/min FaceSonicCourant: 0.0924826/0.0462225
PIMPLE: iteration 2
diagonal:  Solving for rho, Initial residual = 0, Final residual = 0, No Iterations 0
rho max/min : 1002.15 / 998.01
Creating matrix for fvOptions
DILUPBiCGStab:  Solving for Y.Liq, Initial residual = 0.102583, Final residual = 3.68709e-18, No Iterations 1
Mass fraction min/max = 1/1
DILUPBiCGStab:  Solving for h, Initial residual = 0.000274253, Final residual = 1.76324e-20, No Iterations 1
max/min cf_own:1508.57/1507.34
max/min cf_nei:1508.57/1507.34
max/min alpha_own: 0.00182244/0
max/min alpha_nei: 5.18623e-14/-0
DILUPBiCGStab:  Solving for p, Initial residual = 3.79713e-06, Final residual = 3.8536e-22, No Iterations 1
max(mag(U)): 0.7301
max/min p: 1e+07/1e+06
diagonal:  Solving for rho, Initial residual = 0, Final residual = 0, No Iterations 0
rho max/min : 1002.15 / 998.01
time step continuity errors : sum local = 1.20214e-16, global = 8.52582e-18, cumulative = 0
max/min FaceSonicCourant: 0.0924826/0.0462225
max/min FaceSonicCourant: 0.0924826/0.0462225
PIMPLE: iteration 3
diagonal:  Solving for rho, Initial residual = 0, Final residual = 0, No Iterations 0
rho max/min : 1002.15 / 998.01
Creating matrix for fvOptions
DILUPBiCGStab:  Solving for Y.Liq, Initial residual = 0.106825, Final residual = 3.29443e-18, No Iterations 1
Mass fraction min/max = 1/1
DILUPBiCGStab:  Solving for h, Initial residual = 0.00613304, Final residual = 4.07682e-19, No Iterations 1
max/min cf_own:1508.56/1507.35
max/min cf_nei:1508.56/1507.35
max/min alpha_own: 0.00182854/0
max/min alpha_nei: 5.49058e-14/-0
DILUPBiCGStab:  Solving for p, Initial residual = 2.86122e-07, Final residual = 4.03456e-23, No Iterations 1
max(mag(U)): 0.72711
max/min p: 1e+07/1e+06
diagonal:  Solving for rho, Initial residual = 0, Final residual = 0, No Iterations 0
rho max/min : 1002.15 / 998.01
time step continuity errors : sum local = 1.23624e-16, global = 1.53465e-17, cumulative = 0
max/min FaceSonicCourant: 0.0924826/0.0462227
max/min FaceSonicCourant: 0.0924826/0.0462227
ExecutionTime = 0.13 s  ClockTime = 0 s

Mean and max Characteristic Courant Numbers = 0.0462415 0.0924826
Courant Number max: 5.07378e-05
deltaT = 4.60009e-08
Time = 2.69997e-07

PIMPLE: iteration 1
diagonal:  Solving for rho, Initial residual = 0, Final residual = 0, No Iterations 0
rho max/min : 1002.15 / 998.01
Creating matrix for fvOptions
DILUPBiCGStab:  Solving for Y.Liq, Initial residual = 0.147484, Final residual = 3.98417e-18, No Iterations 1
Mass fraction min/max = 1/1
DILUPBiCGStab:  Solving for h, Initial residual = 0.0906574, Final residual = 1.2457e-18, No Iterations 1
max/min cf_own:1508.67/1507.24
max/min cf_nei:1508.67/1507.24
max/min alpha_own: 0.0018254/0
max/min alpha_nei: 5.38943e-14/-0
DILUPBiCGStab:  Solving for p, Initial residual = 6.15944e-05, Final residual = 9.7018e-22, No Iterations 1
max(mag(U)): 0.862199
max/min p: 1e+07/1e+06
diagonal:  Solving for rho, Initial residual = 0, Final residual = 0, No Iterations 0
rho max/min : 1002.15 / 998.01
time step continuity errors : sum local = 1.63696e-16, global = -1.79042e-17, cumulative = 0
max/min FaceSonicCourant: 0.110988/0.0554674
max/min FaceSonicCourant: 0.110988/0.0554674
PIMPLE: iteration 2
diagonal:  Solving for rho, Initial residual = 0, Final residual = 0, No Iterations 0
rho max/min : 1002.15 / 998.01
Creating matrix for fvOptions
DILUPBiCGStab:  Solving for Y.Liq, Initial residual = 0.150458, Final residual = 5.51965e-18, No Iterations 1
Mass fraction min/max = 1/1
DILUPBiCGStab:  Solving for h, Initial residual = 0.000358775, Final residual = 3.46081e-20, No Iterations 1
max/min cf_own:1508.67/1507.24
max/min cf_nei:1508.67/1507.24
max/min alpha_own: 0.00180692/0
max/min alpha_nei: 5.5112e-14/-0
DILUPBiCGStab:  Solving for p, Initial residual = 5.23258e-06, Final residual = 1.42825e-21, No Iterations 1
max(mag(U)): 0.861616
max/min p: 1e+07/1e+06
diagonal:  Solving for rho, Initial residual = 0, Final residual = 0, No Iterations 0
rho max/min : 1002.15 / 998.01
time step continuity errors : sum local = 1.32008e-16, global = -2.3446e-17, cumulative = 0
max/min FaceSonicCourant: 0.110988/0.0554674
max/min FaceSonicCourant: 0.110988/0.0554674
PIMPLE: iteration 3
diagonal:  Solving for rho, Initial residual = 0, Final residual = 0, No Iterations 0
rho max/min : 1002.15 / 998.01
Creating matrix for fvOptions
DILUPBiCGStab:  Solving for Y.Liq, Initial residual = 0.161545, Final residual = 6.14083e-18, No Iterations 1
Mass fraction min/max = 1/1
DILUPBiCGStab:  Solving for h, Initial residual = 0.00705779, Final residual = 5.02828e-19, No Iterations 1
max/min cf_own:1508.66/1507.24
max/min cf_nei:1508.66/1507.24
max/min alpha_own: 0.00181517/0
max/min alpha_nei: 4.95729e-14/-0
DILUPBiCGStab:  Solving for p, Initial residual = 4.64979e-07, Final residual = 9.0778e-23, No Iterations 1
max(mag(U)): 0.858489
max/min p: 1e+07/1e+06
diagonal:  Solving for rho, Initial residual = 0, Final residual = 0, No Iterations 0
rho max/min : 1002.15 / 998.01
time step continuity errors : sum local = 1.53038e-16, global = -1.49202e-17, cumulative = 0
max/min FaceSonicCourant: 0.110988/0.0554677
max/min FaceSonicCourant: 0.110988/0.0554677
ExecutionTime = 0.14 s  ClockTime = 0 s

Mean and max Characteristic Courant Numbers = 0.0554941 0.110988
Courant Number max: 6.23629e-05
deltaT = 5.51909e-08
Time = 3.25188e-07

PIMPLE: iteration 1
diagonal:  Solving for rho, Initial residual = 0, Final residual = 0, No Iterations 0
rho max/min : 1002.15 / 998.01
Creating matrix for fvOptions
DILUPBiCGStab:  Solving for Y.Liq, Initial residual = 0.130005, Final residual = 3.23792e-18, No Iterations 1
Mass fraction min/max = 1/1
DILUPBiCGStab:  Solving for h, Initial residual = 0.0902176, Final residual = 8.11982e-18, No Iterations 1
max/min cf_own:1508.79/1507.12
max/min cf_nei:1508.79/1507.12
max/min alpha_own: 0.00181136/0
max/min alpha_nei: 5.08997e-14/-0
DILUPBiCGStab:  Solving for p, Initial residual = 7.3341e-05, Final residual = 7.52664e-21, No Iterations 1
max(mag(U)): 1.01232
max/min p: 1e+07/1e+06
diagonal:  Solving for rho, Initial residual = 0, Final residual = 0, No Iterations 0
rho max/min : 1002.15 / 998.01
time step continuity errors : sum local = 1.62417e-16, global = 3.2256e-17, cumulative = 0
max/min FaceSonicCourant: 0.133161/0.0665435
max/min FaceSonicCourant: 0.133161/0.0665435
PIMPLE: iteration 2
diagonal:  Solving for rho, Initial residual = 0, Final residual = 0, No Iterations 0
rho max/min : 1002.15 / 998.01
Creating matrix for fvOptions
DILUPBiCGStab:  Solving for Y.Liq, Initial residual = 0.142857, Final residual = 3.06633e-18, No Iterations 1
Mass fraction min/max = 1/1
DILUPBiCGStab:  Solving for h, Initial residual = 0.000466236, Final residual = 1.82658e-20, No Iterations 1
max/min cf_own:1508.79/1507.12
max/min cf_nei:1508.79/1507.12
max/min alpha_own: 0.00179339/0
max/min alpha_nei: 4.83736e-14/-0
DILUPBiCGStab:  Solving for p, Initial residual = 7.16769e-06, Final residual = 5.28004e-22, No Iterations 1
max(mag(U)): 1.01135
max/min p: 1e+07/1e+06
diagonal:  Solving for rho, Initial residual = 0, Final residual = 0, No Iterations 0
rho max/min : 1002.15 / 998.01
time step continuity errors : sum local = 1.25756e-16, global = 1.86147e-17, cumulative = 0
max/min FaceSonicCourant: 0.133161/0.0665435
max/min FaceSonicCourant: 0.133161/0.0665435
PIMPLE: iteration 3
diagonal:  Solving for rho, Initial residual = 0, Final residual = 0, No Iterations 0
rho max/min : 1002.15 / 998.01
Creating matrix for fvOptions
DILUPBiCGStab:  Solving for Y.Liq, Initial residual = 0.135187, Final residual = 3.72558e-18, No Iterations 1
Mass fraction min/max = 1/1
DILUPBiCGStab:  Solving for h, Initial residual = 0.00808098, Final residual = 2.79878e-18, No Iterations 1
max/min cf_own:1508.78/1507.13
max/min cf_nei:1508.78/1507.13
max/min alpha_own: 0.00180442/0
max/min alpha_nei: 4.92612e-14/-0
DILUPBiCGStab:  Solving for p, Initial residual = 7.44053e-07, Final residual = 1.50319e-23, No Iterations 1
max(mag(U)): 1.00889
max/min p: 1e+07/1e+06
diagonal:  Solving for rho, Initial residual = 0, Final residual = 0, No Iterations 0
rho max/min : 1002.15 / 998.01
time step continuity errors : sum local = 1.46502e-16, global = 2.79931e-17, cumulative = 0
max/min FaceSonicCourant: 0.133161/0.0665439
max/min FaceSonicCourant: 0.133161/0.0665439
ExecutionTime = 0.15 s  ClockTime = 0 s

Mean and max Characteristic Courant Numbers = 0.0665807 0.133161
Courant Number max: 7.70714e-05
deltaT = 6.62291e-08
Time = 3.91417e-07

PIMPLE: iteration 1
diagonal:  Solving for rho, Initial residual = 0, Final residual = 0, No Iterations 0
rho max/min : 1002.15 / 998.01
Creating matrix for fvOptions
DILUPBiCGStab:  Solving for Y.Liq, Initial residual = 0.121751, Final residual = 4.61707e-18, No Iterations 1
Mass fraction min/max = 1/1
DILUPBiCGStab:  Solving for h, Initial residual = 0.0899834, Final residual = 6.82142e-18, No Iterations 1
max/min cf_own:1508.92/1506.99
max/min cf_nei:1508.92/1506.99
max/min alpha_own: 0.00180002/0
max/min alpha_nei: 5.17704e-14/-0
DILUPBiCGStab:  Solving for p, Initial residual = 8.74719e-05, Final residual = 4.60085e-21, No Iterations 1
max(mag(U)): 1.18136
max/min p: 1e+07/1e+06
diagonal:  Solving for rho, Initial residual = 0, Final residual = 0, No Iterations 0
rho max/min : 1002.15 / 998.01
time step continuity errors : sum local = 1.35276e-16, global = 3.9503e-17, cumulative = 0
max/min FaceSonicCourant: 0.159793/0.0798453
max/min FaceSonicCourant: 0.159793/0.0798453
PIMPLE: iteration 2
diagonal:  Solving for rho, Initial residual = 0, Final residual = 0, No Iterations 0
rho max/min : 1002.15 / 998.01
Creating matrix for fvOptions
DILUPBiCGStab:  Solving for Y.Liq, Initial residual = 0.0801323, Final residual = 2.96549e-18, No Iterations 1
Mass fraction min/max = 1/1
DILUPBiCGStab:  Solving for h, Initial residual = 0.000632027, Final residual = 3.24143e-20, No Iterations 1
max/min cf_own:1508.92/1506.99
max/min cf_nei:1508.92/1506.99
max/min alpha_own: 0.00178333/0
max/min alpha_nei: 4.84303e-14/-0
DILUPBiCGStab:  Solving for p, Initial residual = 9.76834e-06, Final residual = 3.57498e-22, No Iterations 1
max(mag(U)): 1.17974
max/min p: 1e+07/1e+06
diagonal:  Solving for rho, Initial residual = 0, Final residual = 0, No Iterations 0
rho max/min : 1002.15 / 998.01
time step continuity errors : sum local = 1.13962e-16, global = 3.21139e-17, cumulative = 0
max/min FaceSonicCourant: 0.159793/0.0798453
max/min FaceSonicCourant: 0.159793/0.0798453
PIMPLE: iteration 3
diagonal:  Solving for rho, Initial residual = 0, Final residual = 0, No Iterations 0
rho max/min : 1002.15 / 998.01
Creating matrix for fvOptions
DILUPBiCGStab:  Solving for Y.Liq, Initial residual = 0.0956914, Final residual = 3.97701e-18, No Iterations 1
Mass fraction min/max = 1/1
DILUPBiCGStab:  Solving for h, Initial residual = 0.00920922, Final residual = 2.31066e-18, No Iterations 1
max/min cf_own:1508.91/1507
max/min cf_nei:1508.91/1507
max/min alpha_own: 0.00179796/0
max/min alpha_nei: 5.56379e-14/-0
DILUPBiCGStab:  Solving for p, Initial residual = 1.1711e-06, Final residual = 4.0694e-23, No Iterations 1
max(mag(U)): 1.17945
max/min p: 1e+07/1e+06
diagonal:  Solving for rho, Initial residual = 0, Final residual = 0, No Iterations 0
rho max/min : 1002.15 / 998.01
time step continuity errors : sum local = 1.3215e-16, global = 2.9272e-17, cumulative = 0
max/min FaceSonicCourant: 0.159793/0.079846
max/min FaceSonicCourant: 0.159793/0.079846
ExecutionTime = 0.15 s  ClockTime = 0 s

Mean and max Characteristic Courant Numbers = 0.0798968 0.159793
Courant Number max: 9.58186e-05
deltaT = 7.94961e-08
Time = 4.70913e-07

PIMPLE: iteration 1
diagonal:  Solving for rho, Initial residual = 0, Final residual = 0, No Iterations 0
rho max/min : 1002.15 / 998.01
Creating matrix for fvOptions
DILUPBiCGStab:  Solving for Y.Liq, Initial residual = 0.129498, Final residual = 4.62462e-18, No Iterations 1
Mass fraction min/max = 1/1
DILUPBiCGStab:  Solving for h, Initial residual = 0.0899964, Final residual = 7.57863e-18, No Iterations 1
max/min cf_own:1509.06/1506.85
max/min cf_nei:1509.06/1506.85
max/min alpha_own: 0.00179319/0
max/min alpha_nei: 4.72861e-14/-0
DILUPBiCGStab:  Solving for p, Initial residual = 0.000104615, Final residual = 1.17583e-20, No Iterations 1
max(mag(U)): 1.36885
max/min p: 1e+07/1e+06
diagonal:  Solving for rho, Initial residual = 0, Final residual = 0, No Iterations 0
rho max/min : 1002.15 / 998.01
time step continuity errors : sum local = 1.45934e-16, global = 4.22028e-17, cumulative = 0
max/min FaceSonicCourant: 0.191802/0.0958308
max/min FaceSonicCourant: 0.191802/0.0958308
PIMPLE: iteration 2
diagonal:  Solving for rho, Initial residual = 0, Final residual = 0, No Iterations 0
rho max/min : 1002.15 / 998.01
Creating matrix for fvOptions
DILUPBiCGStab:  Solving for Y.Liq, Initial residual = 0.0963402, Final residual = 3.97362e-18, No Iterations 1
Mass fraction min/max = 1/1
DILUPBiCGStab:  Solving for h, Initial residual = 0.000842134, Final residual = 2.67513e-19, No Iterations 1
max/min cf_own:1509.06/1506.85
max/min cf_nei:1509.06/1506.85
max/min alpha_own: 0.0017785/0
max/min alpha_nei: 5.1553e-14/-0
DILUPBiCGStab:  Solving for p, Initial residual = 1.32484e-05, Final residual = 1.35463e-21, No Iterations 1
max(mag(U)): 1.36615
max/min p: 1e+07/1e+06
diagonal:  Solving for rho, Initial residual = 0, Final residual = 0, No Iterations 0
rho max/min : 1002.15 / 998.01
time step continuity errors : sum local = 1.2874e-16, global = 4.09239e-17, cumulative = 0
max/min FaceSonicCourant: 0.191802/0.0958308
max/min FaceSonicCourant: 0.191802/0.0958308
PIMPLE: iteration 3
diagonal:  Solving for rho, Initial residual = 0, Final residual = 0, No Iterations 0
rho max/min : 1002.15 / 998.01
Creating matrix for fvOptions
DILUPBiCGStab:  Solving for Y.Liq, Initial residual = 0.110149, Final residual = 3.24504e-18, No Iterations 1
Mass fraction min/max = 1/1
DILUPBiCGStab:  Solving for h, Initial residual = 0.0104426, Final residual = 1.56256e-18, No Iterations 1
max/min cf_own:1509.05/1506.86
max/min cf_nei:1509.05/1506.86
max/min alpha_own: 0.00179767/0
max/min alpha_nei: 5.13793e-14/-0
DILUPBiCGStab:  Solving for p, Initial residual = 1.80741e-06, Final residual = 4.7859e-23, No Iterations 1
max(mag(U)): 1.37063
max/min p: 1e+07/1e+06
diagonal:  Solving for rho, Initial residual = 0, Final residual = 0, No Iterations 0
rho max/min : 1002.15 / 998.01
time step continuity errors : sum local = 1.32292e-16, global = 3.68031e-17, cumulative = 0
max/min FaceSonicCourant: 0.191802/0.0958319
max/min FaceSonicCourant: 0.191802/0.0958319
ExecutionTime = 0.16 s  ClockTime = 0 s

Mean and max Characteristic Courant Numbers = 0.0959017 0.191802
Courant Number max: 0.000119902
deltaT = 9.54258e-08
Time = 5.66339e-07

PIMPLE: iteration 1
diagonal:  Solving for rho, Initial residual = 0, Final residual = 0, No Iterations 0
rho max/min : 1002.15 / 998.01
Creating matrix for fvOptions
DILUPBiCGStab:  Solving for Y.Liq, Initial residual = 0.129064, Final residual = 3.09915e-18, No Iterations 1
Mass fraction min/max = 1/1
DILUPBiCGStab:  Solving for h, Initial residual = 0.0902801, Final residual = 7.28939e-18, No Iterations 1
max/min cf_own:1509.22/1506.7
max/min cf_nei:1509.22/1506.7
max/min alpha_own: 0.00179307/0
max/min alpha_nei: 5.09095e-14/-0
DILUPBiCGStab:  Solving for p, Initial residual = 0.000125597, Final residual = 7.2673e-21, No Iterations 1
max(mag(U)): 1.5729
max/min p: 1e+07/1e+06
diagonal:  Solving for rho, Initial residual = 0, Final residual = 0, No Iterations 0
rho max/min : 1002.15 / 998.01
time step continuity errors : sum local = 1.67532e-16, global = -3.26823e-18, cumulative = 0
max/min FaceSonicCourant: 0.230236/0.115022
max/min FaceSonicCourant: 0.230236/0.115022
PIMPLE: iteration 2
diagonal:  Solving for rho, Initial residual = 0, Final residual = 0, No Iterations 0
rho max/min : 1002.15 / 998.01
Creating matrix for fvOptions
DILUPBiCGStab:  Solving for Y.Liq, Initial residual = 0.138795, Final residual = 4.32213e-18, No Iterations 1
Mass fraction min/max = 1/1
DILUPBiCGStab:  Solving for h, Initial residual = 0.00109752, Final residual = 4.32088e-21, No Iterations 1
max/min cf_own:1509.21/1506.69
max/min cf_nei:1509.21/1506.69
max/min alpha_own: 0.0017807/0
max/min alpha_nei: 5.23824e-14/-0
DILUPBiCGStab:  Solving for p, Initial residual = 1.78765e-05, Final residual = 1.05076e-21, No Iterations 1
max(mag(U)): 1.56836
max/min p: 1e+07/1e+06
diagonal:  Solving for rho, Initial residual = 0, Final residual = 0, No Iterations 0
rho max/min : 1002.15 / 998.01
[...]
max/min FaceSonicCourant: 0.482545/0.240828
PIMPLE: iteration 3
diagonal:  Solving for rho, Initial residual = 0, Final residual = 0, No Iterations 0
rho max/min : 1002.15 / 998.01
Creating matrix for fvOptions
DILUPBiCGStab:  Solving for Y.Liq, Initial residual = 0.0121497, Final residual = 4.58362e-19, No Iterations 1
Mass fraction min/max = 1/1
DILUPBiCGStab:  Solving for h, Initial residual = 1.0169e-05, Final residual = 8.52373e-22, No Iterations 1
max/min cf_own:1510.73/1505.18
max/min cf_nei:1510.73/1505.18
max/min alpha_own: 0.00202345/0
max/min alpha_nei: 1.49676e-13/-0
DILUPBiCGStab:  Solving for p, Initial residual = 1.46422e-07, Final residual = 7.42837e-24, No Iterations 1
max(mag(U)): 3.04567
max/min p: 1e+07/1e+06
diagonal:  Solving for rho, Initial residual = 0, Final residual = 0, No Iterations 0
rho max/min : 1002.15 / 998.01
time step continuity errors : sum local = 1.49486e-16, global = 2.21671e-17, cumulative = 0
max/min FaceSonicCourant: 0.482545/0.240828
max/min FaceSonicCourant: 0.482545/0.240828
ExecutionTime = 6.82 s  ClockTime = 7 s

Mean and max Characteristic Courant Numbers = 0.241559 0.482545
Courant Number max: 0.000487308
deltaT = 2e-07
Time = 0.000199

PIMPLE: iteration 1
diagonal:  Solving for rho, Initial residual = 0, Final residual = 0, No Iterations 0
rho max/min : 1002.15 / 998.01
Creating matrix for fvOptions
DILUPBiCGStab:  Solving for Y.Liq, Initial residual = 0.0109517, Final residual = 3.22897e-19, No Iterations 1
Mass fraction min/max = 1/1
DILUPBiCGStab:  Solving for h, Initial residual = 0.000504705, Final residual = 4.82846e-20, No Iterations 1
max/min cf_own:1510.73/1505.18
max/min cf_nei:1510.73/1505.18
max/min alpha_own: 0.00202345/0
max/min alpha_nei: 1.40791e-13/-0
DILUPBiCGStab:  Solving for p, Initial residual = 0.000715789, Final residual = 6.55901e-20, No Iterations 1
max(mag(U)): 3.04567
max/min p: 1e+07/1e+06
diagonal:  Solving for rho, Initial residual = 0, Final residual = 0, No Iterations 0
rho max/min : 1002.15 / 998.01
time step continuity errors : sum local = 1.67674e-16, global = -2.24513e-17, cumulative = 0
max/min FaceSonicCourant: 0.482545/0.240828
max/min FaceSonicCourant: 0.482545/0.240828
PIMPLE: iteration 2
diagonal:  Solving for rho, Initial residual = 0, Final residual = 0, No Iterations 0
rho max/min : 1002.15 / 998.01
Creating matrix for fvOptions
DILUPBiCGStab:  Solving for Y.Liq, Initial residual = 0.0136161, Final residual = 6.21703e-19, No Iterations 1
Mass fraction min/max = 1/1
DILUPBiCGStab:  Solving for h, Initial residual = 2.12714e-06, Final residual = 2.23439e-22, No Iterations 1
max/min cf_own:1510.73/1505.18
max/min cf_nei:1510.73/1505.18
max/min alpha_own: 0.00202345/0
max/min alpha_nei: 1.52022e-13/-0
DILUPBiCGStab:  Solving for p, Initial residual = 1.45415e-05, Final residual = 3.26092e-21, No Iterations 1
max(mag(U)): 3.04567
max/min p: 1e+07/1e+06
diagonal:  Solving for rho, Initial residual = 0, Final residual = 0, No Iterations 0
rho max/min : 1002.15 / 998.01
time step continuity errors : sum local = 1.52328e-16, global = -2.7851e-17, cumulative = 0
max/min FaceSonicCourant: 0.482545/0.240828
max/min FaceSonicCourant: 0.482545/0.240828
PIMPLE: iteration 3
diagonal:  Solving for rho, Initial residual = 0, Final residual = 0, No Iterations 0
rho max/min : 1002.15 / 998.01
Creating matrix for fvOptions
DILUPBiCGStab:  Solving for Y.Liq, Initial residual = 0.0129407, Final residual = 4.8997e-19, No Iterations 1
Mass fraction min/max = 1/1
DILUPBiCGStab:  Solving for h, Initial residual = 1.02135e-05, Final residual = 2.2367e-21, No Iterations 1
max/min cf_own:1510.73/1505.18
max/min cf_nei:1510.73/1505.18
max/min alpha_own: 0.00202345/0
max/min alpha_nei: 1.53278e-13/-0
DILUPBiCGStab:  Solving for p, Initial residual = 1.65744e-07, Final residual = 1.93789e-23, No Iterations 1
max(mag(U)): 3.04567
max/min p: 1e+07/1e+06
diagonal:  Solving for rho, Initial residual = 0, Final residual = 0, No Iterations 0
rho max/min : 1002.15 / 998.01
time step continuity errors : sum local = 1.58864e-16, global = -3.46717e-17, cumulative = 0
max/min FaceSonicCourant: 0.482545/0.240828
max/min FaceSonicCourant: 0.482545/0.240828
ExecutionTime = 6.82 s  ClockTime = 7 s

Mean and max Characteristic Courant Numbers = 0.24156 0.482545
Courant Number max: 0.000487308
deltaT = 2e-07
Time = 0.0001992

PIMPLE: iteration 1
diagonal:  Solving for rho, Initial residual = 0, Final residual = 0, No Iterations 0
rho max/min : 1002.15 / 998.01
Creating matrix for fvOptions
DILUPBiCGStab:  Solving for Y.Liq, Initial residual = 0.011033, Final residual = 4.61183e-19, No Iterations 1
Mass fraction min/max = 1/1
DILUPBiCGStab:  Solving for h, Initial residual = 0.000504198, Final residual = 4.15114e-20, No Iterations 1
max/min cf_own:1510.73/1505.18
max/min cf_nei:1510.73/1505.18
max/min alpha_own: 0.00202345/0
max/min alpha_nei: 1.33324e-13/-0
DILUPBiCGStab:  Solving for p, Initial residual = 0.000716814, Final residual = 5.59391e-20, No Iterations 1
max(mag(U)): 3.04567
max/min p: 1e+07/1e+06
diagonal:  Solving for rho, Initial residual = 0, Final residual = 0, No Iterations 0
rho max/min : 1002.15 / 998.01
time step continuity errors : sum local = 1.56449e-16, global = 2.57196e-17, cumulative = 0
max/min FaceSonicCourant: 0.482545/0.240828
max/min FaceSonicCourant: 0.482545/0.240828
PIMPLE: iteration 2
diagonal:  Solving for rho, Initial residual = 0, Final residual = 0, No Iterations 0
rho max/min : 1002.15 / 998.01
Creating matrix for fvOptions
DILUPBiCGStab:  Solving for Y.Liq, Initial residual = 0.0129615, Final residual = 5.73787e-19, No Iterations 1
Mass fraction min/max = 1/1
DILUPBiCGStab:  Solving for h, Initial residual = 2.12902e-06, Final residual = 4.60764e-22, No Iterations 1
max/min cf_own:1510.73/1505.18
max/min cf_nei:1510.73/1505.18
max/min alpha_own: 0.00202345/0
max/min alpha_nei: 1.48214e-13/-0
DILUPBiCGStab:  Solving for p, Initial residual = 1.44707e-05, Final residual = 1.41839e-21, No Iterations 1
max(mag(U)): 3.04567
max/min p: 1e+07/1e+06
diagonal:  Solving for rho, Initial residual = 0, Final residual = 0, No Iterations 0
rho max/min : 1002.15 / 998.01
time step continuity errors : sum local = 1.5176e-16, global = 2.13146e-17, cumulative = 0
max/min FaceSonicCourant: 0.482545/0.240828
max/min FaceSonicCourant: 0.482545/0.240828
PIMPLE: iteration 3
diagonal:  Solving for rho, Initial residual = 0, Final residual = 0, No Iterations 0
rho max/min : 1002.15 / 998.01
Creating matrix for fvOptions
DILUPBiCGStab:  Solving for Y.Liq, Initial residual = 0.0124616, Final residual = 4.69123e-19, No Iterations 1
Mass fraction min/max = 1/1
DILUPBiCGStab:  Solving for h, Initial residual = 1.01404e-05, Final residual = 8.66676e-22, No Iterations 1
max/min cf_own:1510.73/1505.18
max/min cf_nei:1510.73/1505.18
max/min alpha_own: 0.00202345/0
max/min alpha_nei: 1.46574e-13/-0
DILUPBiCGStab:  Solving for p, Initial residual = 1.33273e-07, Final residual = 2.65594e-23, No Iterations 1
max(mag(U)): 3.04567
max/min p: 1e+07/1e+06
diagonal:  Solving for rho, Initial residual = 0, Final residual = 0, No Iterations 0
rho max/min : 1002.15 / 998.01
time step continuity errors : sum local = 1.46218e-16, global = 2.37302e-17, cumulative = 0
max/min FaceSonicCourant: 0.482545/0.240828
max/min FaceSonicCourant: 0.482545/0.240828
ExecutionTime = 6.83 s  ClockTime = 7 s

Mean and max Characteristic Courant Numbers = 0.24156 0.482545
Courant Number max: 0.000487308
deltaT = 2e-07
Time = 0.0001994

PIMPLE: iteration 1
diagonal:  Solving for rho, Initial residual = 0, Final residual = 0, No Iterations 0
rho max/min : 1002.15 / 998.01
Creating matrix for fvOptions
DILUPBiCGStab:  Solving for Y.Liq, Initial residual = 0.010966, Final residual = 4.00376e-19, No Iterations 1
Mass fraction min/max = 1/1
DILUPBiCGStab:  Solving for h, Initial residual = 0.000503692, Final residual = 1.05015e-19, No Iterations 1
max/min cf_own:1510.73/1505.18
max/min cf_nei:1510.73/1505.18
max/min alpha_own: 0.00202345/0
max/min alpha_nei: 1.58194e-13/-0
DILUPBiCGStab:  Solving for p, Initial residual = 0.000717843, Final residual = 5.76737e-20, No Iterations 1
max(mag(U)): 3.04567
max/min p: 1e+07/1e+06
diagonal:  Solving for rho, Initial residual = 0, Final residual = 0, No Iterations 0
rho max/min : 1002.15 / 998.01
time step continuity errors : sum local = 1.58296e-16, global = -3.26823e-17, cumulative = 0
max/min FaceSonicCourant: 0.482545/0.240828
max/min FaceSonicCourant: 0.482545/0.240828
PIMPLE: iteration 2
diagonal:  Solving for rho, Initial residual = 0, Final residual = 0, No Iterations 0
rho max/min : 1002.15 / 998.01
Creating matrix for fvOptions
DILUPBiCGStab:  Solving for Y.Liq, Initial residual = 0.0125865, Final residual = 5.27349e-19, No Iterations 1
Mass fraction min/max = 1/1
DILUPBiCGStab:  Solving for h, Initial residual = 2.11255e-06, Final residual = 2.10874e-22, No Iterations 1
max/min cf_own:1510.73/1505.18
max/min cf_nei:1510.73/1505.18
max/min alpha_own: 0.00202345/0
max/min alpha_nei: 1.57329e-13/-0
DILUPBiCGStab:  Solving for p, Initial residual = 1.45718e-05, Final residual = 3.26922e-21, No Iterations 1
max(mag(U)): 3.04567
max/min p: 1e+07/1e+06
diagonal:  Solving for rho, Initial residual = 0, Final residual = 0, No Iterations 0
rho max/min : 1002.15 / 998.01
time step continuity errors : sum local = 1.51191e-16, global = -2.87036e-17, cumulative = 0
max/min FaceSonicCourant: 0.482545/0.240828
max/min FaceSonicCourant: 0.482545/0.240828
PIMPLE: iteration 3
diagonal:  Solving for rho, Initial residual = 0, Final residual = 0, No Iterations 0
rho max/min : 1002.15 / 998.01
Creating matrix for fvOptions
DILUPBiCGStab:  Solving for Y.Liq, Initial residual = 0.0129439, Final residual = 5.22432e-19, No Iterations 1
Mass fraction min/max = 1/1
DILUPBiCGStab:  Solving for h, Initial residual = 1.01845e-05, Final residual = 2.3411e-21, No Iterations 1
max/min cf_own:1510.73/1505.18
max/min cf_nei:1510.73/1505.18
max/min alpha_own: 0.00202345/0
max/min alpha_nei: 1.52054e-13/-0
DILUPBiCGStab:  Solving for p, Initial residual = 1.76284e-07, Final residual = 1.43465e-23, No Iterations 1
max(mag(U)): 3.04567
max/min p: 1e+07/1e+06
diagonal:  Solving for rho, Initial residual = 0, Final residual = 0, No Iterations 0
rho max/min : 1002.15 / 998.01
time step continuity errors : sum local = 1.53323e-16, global = -2.06041e-17, cumulative = 0
max/min FaceSonicCourant: 0.482545/0.240828
max/min FaceSonicCourant: 0.482545/0.240828
ExecutionTime = 6.83 s  ClockTime = 7 s

Mean and max Characteristic Courant Numbers = 0.24156 0.482545
Courant Number max: 0.000487308
deltaT = 2e-07
Time = 0.0001996

PIMPLE: iteration 1
diagonal:  Solving for rho, Initial residual = 0, Final residual = 0, No Iterations 0
rho max/min : 1002.15 / 998.01
Creating matrix for fvOptions
DILUPBiCGStab:  Solving for Y.Liq, Initial residual = 0.0105434, Final residual = 3.90238e-19, No Iterations 1
Mass fraction min/max = 1/1
DILUPBiCGStab:  Solving for h, Initial residual = 0.000503188, Final residual = 9.40839e-20, No Iterations 1
max/min cf_own:1510.73/1505.18
max/min cf_nei:1510.73/1505.18
max/min alpha_own: 0.00202345/0
max/min alpha_nei: 1.60701e-13/-0
DILUPBiCGStab:  Solving for p, Initial residual = 0.000718874, Final residual = 9.71068e-20, No Iterations 1
max(mag(U)): 3.04567
max/min p: 1e+07/1e+06
diagonal:  Solving for rho, Initial residual = 0, Final residual = 0, No Iterations 0
rho max/min : 1002.15 / 998.01
time step continuity errors : sum local = 1.61564e-16, global = -2.40144e-17, cumulative = 0
max/min FaceSonicCourant: 0.482545/0.240828
max/min FaceSonicCourant: 0.482545/0.240828
PIMPLE: iteration 2
diagonal:  Solving for rho, Initial residual = 0, Final residual = 0, No Iterations 0
rho max/min : 1002.15 / 998.01
Creating matrix for fvOptions
DILUPBiCGStab:  Solving for Y.Liq, Initial residual = 0.0128208, Final residual = 4.93429e-19, No Iterations 1
Mass fraction min/max = 1/1
DILUPBiCGStab:  Solving for h, Initial residual = 2.12491e-06, Final residual = 4.72581e-22, No Iterations 1
max/min cf_own:1510.73/1505.18
max/min cf_nei:1510.73/1505.18
max/min alpha_own: 0.00202345/0
max/min alpha_nei: 1.65817e-13/-0
DILUPBiCGStab:  Solving for p, Initial residual = 1.4525e-05, Final residual = 1.25999e-21, No Iterations 1
max(mag(U)): 3.04567
max/min p: 1e+07/1e+06
diagonal:  Solving for rho, Initial residual = 0, Final residual = 0, No Iterations 0
rho max/min : 1002.15 / 998.01
time step continuity errors : sum local = 1.55312e-16, global = -1.54886e-17, cumulative = 0
max/min FaceSonicCourant: 0.482545/0.240828
max/min FaceSonicCourant: 0.482545/0.240828
PIMPLE: iteration 3
diagonal:  Solving for rho, Initial residual = 0, Final residual = 0, No Iterations 0
rho max/min : 1002.15 / 998.01
Creating matrix for fvOptions
DILUPBiCGStab:  Solving for Y.Liq, Initial residual = 0.0124817, Final residual = 4.72203e-19, No Iterations 1
Mass fraction min/max = 1/1
DILUPBiCGStab:  Solving for h, Initial residual = 1.01283e-05, Final residual = 9.72525e-22, No Iterations 1
max/min cf_own:1510.73/1505.18
max/min cf_nei:1510.73/1505.18
max/min alpha_own: 0.00202345/0
max/min alpha_nei: 1.53542e-13/-0
DILUPBiCGStab:  Solving for p, Initial residual = 1.52865e-07, Final residual = 2.32544e-23, No Iterations 1
max(mag(U)): 3.04567
max/min p: 1e+07/1e+06
diagonal:  Solving for rho, Initial residual = 0, Final residual = 0, No Iterations 0
rho max/min : 1002.15 / 998.01
time step continuity errors : sum local = 1.50907e-16, global = -2.38723e-17, cumulative = 0
max/min FaceSonicCourant: 0.482545/0.240828
max/min FaceSonicCourant: 0.482545/0.240828
ExecutionTime = 6.84 s  ClockTime = 7 s

Mean and max Characteristic Courant Numbers = 0.24156 0.482545
Courant Number max: 0.000487308
deltaT = 2e-07
Time = 0.0001998

PIMPLE: iteration 1
diagonal:  Solving for rho, Initial residual = 0, Final residual = 0, No Iterations 0
rho max/min : 1002.15 / 998.01
Creating matrix for fvOptions
DILUPBiCGStab:  Solving for Y.Liq, Initial residual = 0.00995775, Final residual = 3.7487e-19, No Iterations 1
Mass fraction min/max = 1/1
DILUPBiCGStab:  Solving for h, Initial residual = 0.000502684, Final residual = 1.2567e-19, No Iterations 1
max/min cf_own:1510.73/1505.18
max/min cf_nei:1510.73/1505.18
max/min alpha_own: 0.00202345/0
max/min alpha_nei: 1.52867e-13/-0
DILUPBiCGStab:  Solving for p, Initial residual = 0.000719908, Final residual = 1.05408e-19, No Iterations 1
max(mag(U)): 3.04567
max/min p: 1e+07/1e+06
diagonal:  Solving for rho, Initial residual = 0, Final residual = 0, No Iterations 0
rho max/min : 1002.15 / 998.01
time step continuity errors : sum local = 1.60996e-16, global = -2.06041e-17, cumulative = 0
max/min FaceSonicCourant: 0.482545/0.240828
max/min FaceSonicCourant: 0.482545/0.240828
PIMPLE: iteration 2
diagonal:  Solving for rho, Initial residual = 0, Final residual = 0, No Iterations 0
rho max/min : 1002.15 / 998.01
Creating matrix for fvOptions
DILUPBiCGStab:  Solving for Y.Liq, Initial residual = 0.0121059, Final residual = 4.89679e-19, No Iterations 1
Mass fraction min/max = 1/1
DILUPBiCGStab:  Solving for h, Initial residual = 2.12037e-06, Final residual = 2.09478e-22, No Iterations 1
max/min cf_own:1510.73/1505.18
max/min cf_nei:1510.73/1505.18
max/min alpha_own: 0.00202345/0
max/min alpha_nei: 1.56226e-13/-0
DILUPBiCGStab:  Solving for p, Initial residual = 1.45958e-05, Final residual = 1.45161e-21, No Iterations 1
max(mag(U)): 3.04567
max/min p: 1e+07/1e+06
diagonal:  Solving for rho, Initial residual = 0, Final residual = 0, No Iterations 0
rho max/min : 1002.15 / 998.01
time step continuity errors : sum local = 1.54175e-16, global = -2.45828e-17, cumulative = 0
max/min FaceSonicCourant: 0.482545/0.240828
max/min FaceSonicCourant: 0.482545/0.240828
PIMPLE: iteration 3
diagonal:  Solving for rho, Initial residual = 0, Final residual = 0, No Iterations 0
rho max/min : 1002.15 / 998.01
Creating matrix for fvOptions
DILUPBiCGStab:  Solving for Y.Liq, Initial residual = 0.0121339, Final residual = 4.79684e-19, No Iterations 1
Mass fraction min/max = 1/1
DILUPBiCGStab:  Solving for h, Initial residual = 1.01521e-05, Final residual = 2.2551e-21, No Iterations 1
max/min cf_own:1510.73/1505.18
max/min cf_nei:1510.73/1505.18
max/min alpha_own: 0.00202345/0
max/min alpha_nei: 1.69141e-13/-0
DILUPBiCGStab:  Solving for p, Initial residual = 1.671e-07, Final residual = 2.76387e-23, No Iterations 1
max(mag(U)): 3.04567
max/min p: 1e+07/1e+06
diagonal:  Solving for rho, Initial residual = 0, Final residual = 0, No Iterations 0
rho max/min : 1002.15 / 998.01
time step continuity errors : sum local = 1.52044e-16, global = -1.19361e-17, cumulative = 0
max/min FaceSonicCourant: 0.482545/0.240828
max/min FaceSonicCourant: 0.482545/0.240828
ExecutionTime = 6.84 s  ClockTime = 7 s

Mean and max Characteristic Courant Numbers = 0.241561 0.482545
Courant Number max: 0.000487308
deltaT = 2e-07
Time = 0.0002

PIMPLE: iteration 1
diagonal:  Solving for rho, Initial residual = 0, Final residual = 0, No Iterations 0
rho max/min : 1002.15 / 998.01
Creating matrix for fvOptions
DILUPBiCGStab:  Solving for Y.Liq, Initial residual = 0.0111116, Final residual = 3.92388e-19, No Iterations 1
Mass fraction min/max = 1/1
DILUPBiCGStab:  Solving for h, Initial residual = 0.000502181, Final residual = 3.92958e-20, No Iterations 1
max/min cf_own:1510.73/1505.18
max/min cf_nei:1510.73/1505.18
max/min alpha_own: 0.00202345/0
max/min alpha_nei: 1.43863e-13/-0
DILUPBiCGStab:  Solving for p, Initial residual = 0.000720945, Final residual = 1.52189e-19, No Iterations 1
max(mag(U)): 3.04567
max/min p: 1e+07/1e+06
diagonal:  Solving for rho, Initial residual = 0, Final residual = 0, No Iterations 0
rho max/min : 1002.15 / 998.01
time step continuity errors : sum local = 1.58864e-16, global = 1.25045e-17, cumulative = 0
max/min FaceSonicCourant: 0.482545/0.240828
max/min FaceSonicCourant: 0.482545/0.240828
PIMPLE: iteration 2
diagonal:  Solving for rho, Initial residual = 0, Final residual = 0, No Iterations 0
rho max/min : 1002.15 / 998.01
Creating matrix for fvOptions
DILUPBiCGStab:  Solving for Y.Liq, Initial residual = 0.0125698, Final residual = 5.13331e-19, No Iterations 1
Mass fraction min/max = 1/1
DILUPBiCGStab:  Solving for h, Initial residual = 2.1147e-06, Final residual = 4.32867e-22, No Iterations 1
max/min cf_own:1510.73/1505.18
max/min cf_nei:1510.73/1505.18
max/min alpha_own: 0.00202345/0
max/min alpha_nei: 1.54892e-13/-0
DILUPBiCGStab:  Solving for p, Initial residual = 1.45478e-05, Final residual = 3.33879e-21, No Iterations 1
max(mag(U)): 3.04567
max/min p: 1e+07/1e+06
diagonal:  Solving for rho, Initial residual = 0, Final residual = 0, No Iterations 0
rho max/min : 1002.15 / 998.01
time step continuity errors : sum local = 1.56023e-16, global = 1.13678e-17, cumulative = 0
max/min FaceSonicCourant: 0.482545/0.240828
max/min FaceSonicCourant: 0.482545/0.240828
PIMPLE: iteration 3
diagonal:  Solving for rho, Initial residual = 0, Final residual = 0, No Iterations 0
rho max/min : 1002.15 / 998.01
Creating matrix for fvOptions
DILUPBiCGStab:  Solving for Y.Liq, Initial residual = 0.0120918, Final residual = 4.98761e-19, No Iterations 1
Mass fraction min/max = 1/1
DILUPBiCGStab:  Solving for h, Initial residual = 1.00951e-05, Final residual = 2.19237e-21, No Iterations 1
max/min cf_own:1510.73/1505.18
max/min cf_nei:1510.73/1505.18
max/min alpha_own: 0.00202345/0
max/min alpha_nei: 1.45631e-13/-0
DILUPBiCGStab:  Solving for p, Initial residual = 1.4147e-07, Final residual = 1.65903e-23, No Iterations 1
max(mag(U)): 3.04567
max/min p: 1e+07/1e+06
diagonal:  Solving for rho, Initial residual = 0, Final residual = 0, No Iterations 0
rho max/min : 1002.15 / 998.01
time step continuity errors : sum local = 1.51333e-16, global = 1.86147e-17, cumulative = 0
max/min FaceSonicCourant: 0.482545/0.240828
max/min FaceSonicCourant: 0.482545/0.240828
ExecutionTime = 6.86 s  ClockTime = 7 s

End

