/*---------------------------------------------------------------------------*\
| =========                 |                                                 |
| \\      /  F ield         | OpenFOAM: The Open Source CFD Toolbox           |
|  \\    /   O peration     | Version:  2312                                  |
|   \\  /    A nd           | Website:  www.openfoam.com                      |
|    \\/     M anipulation  |                                                 |
\*---------------------------------------------------------------------------*/
Build  : _1d8f0d55f7-20231221 OPENFOAM=2312 version=v2312
Arch   : "LSB;label=32;scalar=64"
Exec   : twoPhaseMixingHLLFoam
Date   : Jan 14 2025
Time   : 01:49:29
Host   : DESKTOP-RQCD3EN
PID    : 239783
I/O    : uncollated
Case   : /home/dodo/OpenFOAM/dodo-v2312/run/20240927CasesforTheTwoPhaseMixingHLLCFoam/6LiqSod/finalHLL_new
nProcs : 1
trapFpe: Floating point exception trapping enabled (FOAM_SIGFPE).
fileModificationChecking : Monitoring run-time modified files using timeStampMaster (fileModificationSkew 5, maxFileModificationPolls 20)
allowSystemOperations : Allowing user-supplied system call operations

// * * * * * * * * * * * * * * * * * * * * * * * * * * * * * * * * * * * * * //
Create time

Create mesh for time = 0


PIMPLE: no residual control data found. Calculations will employ 2 corrector loops

Reading field U

Constructing compressibleTwoPhaseMixtureThermo

Selecting saturationModel: constant
Reading thermophysical properties

Creating field gradp

Creating field kinetic energy K

Declare and initialise the cumulative continuity error

No MRF models present

No finite volume options present
Selecting finite volume kappaFunction type sonicCourantInverse
Creating turbulence model

Selecting turbulence model type laminar
Selecting laminar stress model Stokes
Marking cells with bad quality to limit pressure gradient
Courant Number max: 0

Starting time loop

Sampled set:
    line -> csv

Mean and max Characteristic Courant Numbers = 0.00120636 0.00241273
Courant Number max: 0
deltaT = 1.2e-09
Time = 1.2e-09

PIMPLE: iteration 1
diagonal:  Solving for rho, Initial residual = 0, Final residual = 0, No Iterations 0
rho max/min : 1002.15 / 998.01
Creating matrix for fvOptions
DILUPBiCGStab:  Solving for Y.Liq, Initial residual = 1, Final residual = 1.08802e-17, No Iterations 1
Mass fraction min/max = 1/1
DILUPBiCGStab:  Solving for h, Initial residual = 1, Final residual = 1.68119e-17, No Iterations 1
max/min cf_own:1507.95/1507.95
max/min cf_nei:1507.95/1507.95
DILUPBiCGStab:  Solving for p, Initial residual = 5.00722e-09, Final residual = 9.021e-29, No Iterations 1
max(mag(U)): 0.00432862
max/min p: 1e+07/1e+06
diagonal:  Solving for rho, Initial residual = 0, Final residual = 0, No Iterations 0
rho max/min : 1002.15 / 998.01
time step continuity errors : sum local = 9.57734e-17, global = 6.11017e-17, cumulative = 0
max/min FaceSonicCourant: 0.00289528/0.00144764
max/min FaceSonicCourant: 0.00289528/0.00144764
PIMPLE: iteration 2
diagonal:  Solving for rho, Initial residual = 0, Final residual = 0, No Iterations 0
rho max/min : 1002.15 / 998.01
Creating matrix for fvOptions
DILUPBiCGStab:  Solving for Y.Liq, Initial residual = 0.140251, Final residual = 3.7978e-19, No Iterations 1
Mass fraction min/max = 1/1
DILUPBiCGStab:  Solving for h, Initial residual = 0.999998, Final residual = 5.80118e-22, No Iterations 1
max/min cf_own:1507.95/1507.95
max/min cf_nei:1507.95/1507.95
DILUPBiCGStab:  Solving for p, Initial residual = 1.80956e-06, Final residual = 1.60955e-22, No Iterations 1
max(mag(U)): 0.00432707
max/min p: 1e+07/1e+06
diagonal:  Solving for rho, Initial residual = 0, Final residual = 0, No Iterations 0
rho max/min : 1002.15 / 998.01
time step continuity errors : sum local = 7.1759e-17, global = 3.62347e-17, cumulative = 0
max/min FaceSonicCourant: 0.00289528/0.00144764
max/min FaceSonicCourant: 0.00289528/0.00144764
ExecutionTime = 0.01 s  ClockTime = 0 s

Mean and max Characteristic Courant Numbers = 0.00144765 0.00289528
Courant Number max: 1.50452e-06
deltaT = 1.44001e-09
Time = 2.64002e-09

PIMPLE: iteration 1
diagonal:  Solving for rho, Initial residual = 0, Final residual = 0, No Iterations 0
rho max/min : 1002.15 / 998.01
Creating matrix for fvOptions
DILUPBiCGStab:  Solving for Y.Liq, Initial residual = 0.0394904, Final residual = 1.46005e-19, No Iterations 1
Mass fraction min/max = 1/1
DILUPBiCGStab:  Solving for h, Initial residual = 0.995399, Final residual = 8.53133e-17, No Iterations 1
max/min cf_own:1507.96/1507.95
max/min cf_nei:1507.96/1507.95
DILUPBiCGStab:  Solving for p, Initial residual = 2.18669e-06, Final residual = 3.86741e-22, No Iterations 1
max(mag(U)): 0.00950673
max/min p: 1e+07/1e+06
diagonal:  Solving for rho, Initial residual = 0, Final residual = 0, No Iterations 0
rho max/min : 1002.15 / 998.01
time step continuity errors : sum local = 7.1759e-17, global = -2.14566e-17, cumulative = 0
max/min FaceSonicCourant: 0.00347436/0.00173717
max/min FaceSonicCourant: 0.00347436/0.00173717
PIMPLE: iteration 2
diagonal:  Solving for rho, Initial residual = 0, Final residual = 0, No Iterations 0
rho max/min : 1002.15 / 998.01
Creating matrix for fvOptions
DILUPBiCGStab:  Solving for Y.Liq, Initial residual = 0.0431472, Final residual = 4.30207e-19, No Iterations 1
Mass fraction min/max = 1/1
DILUPBiCGStab:  Solving for h, Initial residual = 0.00236608, Final residual = 6.6548e-19, No Iterations 1
max/min cf_own:1507.96/1507.95
max/min cf_nei:1507.96/1507.95
DILUPBiCGStab:  Solving for p, Initial residual = 1.85066e-09, Final residual = 1.79452e-27, No Iterations 1
max(mag(U)): 0.009509
max/min p: 1e+07/1e+06
diagonal:  Solving for rho, Initial residual = 0, Final residual = 0, No Iterations 0
rho max/min : 1002.15 / 998.01
time step continuity errors : sum local = 7.10485e-17, global = -2.18829e-17, cumulative = 0
max/min FaceSonicCourant: 0.00347436/0.00173717
max/min FaceSonicCourant: 0.00347436/0.00173717
ExecutionTime = 0.02 s  ClockTime = 0 s

Mean and max Characteristic Courant Numbers = 0.00173718 0.00347436
Courant Number max: 1.80494e-06
deltaT = 1.72803e-09
Time = 4.36804e-09

PIMPLE: iteration 1
diagonal:  Solving for rho, Initial residual = 0, Final residual = 0, No Iterations 0
rho max/min : 1002.15 / 998.01
Creating matrix for fvOptions
DILUPBiCGStab:  Solving for Y.Liq, Initial residual = 0.492278, Final residual = 3.968e-17, No Iterations 1
Mass fraction min/max = 1/1
DILUPBiCGStab:  Solving for h, Initial residual = 0.373418, Final residual = 1.87366e-19, No Iterations 1
max/min cf_own:1507.97/1507.94
max/min cf_nei:1507.97/1507.94
DILUPBiCGStab:  Solving for p, Initial residual = 2.62334e-06, Final residual = 4.65905e-22, No Iterations 1
max(mag(U)): 0.0157143
max/min p: 1e+07/1e+06
diagonal:  Solving for rho, Initial residual = 0, Final residual = 0, No Iterations 0
rho max/min : 1002.15 / 998.01
time step continuity errors : sum local = 7.68745e-17, global = -5.69809e-17, cumulative = 0
max/min FaceSonicCourant: 0.00416925/0.00208461
max/min FaceSonicCourant: 0.00416925/0.00208461
PIMPLE: iteration 2
diagonal:  Solving for rho, Initial residual = 0, Final residual = 0, No Iterations 0
rho max/min : 1002.15 / 998.01
Creating matrix for fvOptions
DILUPBiCGStab:  Solving for Y.Liq, Initial residual = 0.171629, Final residual = 1.79054e-17, No Iterations 1
Mass fraction min/max = 1/1
DILUPBiCGStab:  Solving for h, Initial residual = 0.000674339, Final residual = 8.04363e-18, No Iterations 1
max/min cf_own:1507.97/1507.94
max/min cf_nei:1507.97/1507.94
DILUPBiCGStab:  Solving for p, Initial residual = 2.75425e-09, Final residual = 4.57757e-25, No Iterations 1
max(mag(U)): 0.0157176
max/min p: 1e+07/1e+06
diagonal:  Solving for rho, Initial residual = 0, Final residual = 0, No Iterations 0
rho max/min : 1002.15 / 998.01
time step continuity errors : sum local = 7.74429e-17, global = -1.37834e-17, cumulative = 0
max/min FaceSonicCourant: 0.00416925/0.00208461
max/min FaceSonicCourant: 0.00416925/0.00208461
ExecutionTime = 0.02 s  ClockTime = 0 s

Mean and max Characteristic Courant Numbers = 0.00208463 0.00416925
Courant Number max: 2.16711e-06
deltaT = 2.07361e-09
Time = 6.44165e-09

PIMPLE: iteration 1
diagonal:  Solving for rho, Initial residual = 0, Final residual = 0, No Iterations 0
rho max/min : 1002.15 / 998.01
Creating matrix for fvOptions
DILUPBiCGStab:  Solving for Y.Liq, Initial residual = 0.175983, Final residual = 2.01068e-17, No Iterations 1
Mass fraction min/max = 1/1
DILUPBiCGStab:  Solving for h, Initial residual = 0.245208, Final residual = 2.12028e-17, No Iterations 1
max/min cf_own:1507.97/1507.94
max/min cf_nei:1507.97/1507.94
DILUPBiCGStab:  Solving for p, Initial residual = 3.14686e-06, Final residual = 2.80085e-22, No Iterations 1
max(mag(U)): 0.0231489
max/min p: 1e+07/1e+06
diagonal:  Solving for rho, Initial residual = 0, Final residual = 0, No Iterations 0
rho max/min : 1002.15 / 998.01
time step continuity errors : sum local = 4.78867e-17, global = -2.99825e-17, cumulative = 0
max/min FaceSonicCourant: 0.00500305/0.0025015
max/min FaceSonicCourant: 0.00500305/0.0025015
PIMPLE: iteration 2
diagonal:  Solving for rho, Initial residual = 0, Final residual = 0, No Iterations 0
rho max/min : 1002.15 / 998.01
Creating matrix for fvOptions
DILUPBiCGStab:  Solving for Y.Liq, Initial residual = 0.0975789, Final residual = 1.05234e-17, No Iterations 1
Mass fraction min/max = 1/1
DILUPBiCGStab:  Solving for h, Initial residual = 0.000587309, Final residual = 3.53537e-18, No Iterations 1
max/min cf_own:1507.97/1507.94
max/min cf_nei:1507.97/1507.94
DILUPBiCGStab:  Solving for p, Initial residual = 3.95713e-09, Final residual = 5.61105e-25, No Iterations 1
max(mag(U)): 0.0231537
max/min p: 1e+07/1e+06
diagonal:  Solving for rho, Initial residual = 0, Final residual = 0, No Iterations 0
rho max/min : 1002.15 / 998.01
time step continuity errors : sum local = 4.09239e-17, global = -3.04088e-17, cumulative = 0
max/min FaceSonicCourant: 0.00500305/0.0025015
max/min FaceSonicCourant: 0.00500305/0.0025015
ExecutionTime = 0.02 s  ClockTime = 0 s

Mean and max Characteristic Courant Numbers = 0.00250153 0.00500305
Courant Number max: 2.60219e-06
deltaT = 2.48833e-09
Time = 8.92998e-09

PIMPLE: iteration 1
diagonal:  Solving for rho, Initial residual = 0, Final residual = 0, No Iterations 0
rho max/min : 1002.15 / 998.01
Creating matrix for fvOptions
DILUPBiCGStab:  Solving for Y.Liq, Initial residual = 0.122004, Final residual = 9.69919e-18, No Iterations 1
Mass fraction min/max = 1/1
DILUPBiCGStab:  Solving for h, Initial residual = 0.190415, Final residual = 2.56406e-19, No Iterations 1
max/min cf_own:1507.98/1507.93
max/min cf_nei:1507.98/1507.93
DILUPBiCGStab:  Solving for p, Initial residual = 3.77462e-06, Final residual = 3.91327e-24, No Iterations 1
max(mag(U)): 0.03205
max/min p: 1e+07/1e+06
diagonal:  Solving for rho, Initial residual = 0, Final residual = 0, No Iterations 0
rho max/min : 1002.15 / 998.01
time step continuity errors : sum local = 8.02848e-17, global = -3.26823e-18, cumulative = 0
max/min FaceSonicCourant: 0.00600366/0.00300178
max/min FaceSonicCourant: 0.00600366/0.00300178
PIMPLE: iteration 2
diagonal:  Solving for rho, Initial residual = 0, Final residual = 0, No Iterations 0
rho max/min : 1002.15 / 998.01
Creating matrix for fvOptions
DILUPBiCGStab:  Solving for Y.Liq, Initial residual = 0.0226757, Final residual = 1.13451e-18, No Iterations 1
Mass fraction min/max = 1/1
DILUPBiCGStab:  Solving for h, Initial residual = 0.00057363, Final residual = 5.37665e-20, No Iterations 1
max/min cf_own:1507.98/1507.93
max/min cf_nei:1507.98/1507.93
DILUPBiCGStab:  Solving for p, Initial residual = 5.68301e-09, Final residual = 9.89141e-25, No Iterations 1
max(mag(U)): 0.0320568
max/min p: 1e+07/1e+06
diagonal:  Solving for rho, Initial residual = 0, Final residual = 0, No Iterations 0
rho max/min : 1002.15 / 998.01
time step continuity errors : sum local = 6.38016e-17, global = 1.20782e-17, cumulative = 0
max/min FaceSonicCourant: 0.00600366/0.00300178
max/min FaceSonicCourant: 0.00600366/0.00300178
ExecutionTime = 0.03 s  ClockTime = 0 s

Mean and max Characteristic Courant Numbers = 0.00300184 0.00600366
Courant Number max: 3.12509e-06
deltaT = 2.98597e-09
Time = 1.19159e-08

PIMPLE: iteration 1
diagonal:  Solving for rho, Initial residual = 0, Final residual = 0, No Iterations 0
rho max/min : 1002.15 / 998.01
Creating matrix for fvOptions
DILUPBiCGStab:  Solving for Y.Liq, Initial residual = 0.117769, Final residual = 1.47123e-17, No Iterations 1
Mass fraction min/max = 1/1
DILUPBiCGStab:  Solving for h, Initial residual = 0.160315, Final residual = 1.39697e-17, No Iterations 1
max/min cf_own:1507.99/1507.92
max/min cf_nei:1507.99/1507.92
DILUPBiCGStab:  Solving for p, Initial residual = 4.52719e-06, Final residual = 3.13883e-24, No Iterations 1
max(mag(U)): 0.0427015
max/min p: 1e+07/1e+06
diagonal:  Solving for rho, Initial residual = 0, Final residual = 0, No Iterations 0
rho max/min : 1002.15 / 998.01
time step continuity errors : sum local = 5.18654e-17, global = 1.20782e-17, cumulative = 0
max/min FaceSonicCourant: 0.00720432/0.00360208
max/min FaceSonicCourant: 0.00720432/0.00360208
PIMPLE: iteration 2
diagonal:  Solving for rho, Initial residual = 0, Final residual = 0, No Iterations 0
rho max/min : 1002.15 / 998.01
Creating matrix for fvOptions
DILUPBiCGStab:  Solving for Y.Liq, Initial residual = 0.0916104, Final residual = 6.65444e-18, No Iterations 1
Mass fraction min/max = 1/1
DILUPBiCGStab:  Solving for h, Initial residual = 0.000596085, Final residual = 2.57239e-19, No Iterations 1
max/min cf_own:1507.99/1507.92
max/min cf_nei:1507.99/1507.92
DILUPBiCGStab:  Solving for p, Initial residual = 8.15711e-09, Final residual = 7.9659e-28, No Iterations 1
max(mag(U)): 0.0427114
max/min p: 1e+07/1e+06
diagonal:  Solving for rho, Initial residual = 0, Final residual = 0, No Iterations 0
rho max/min : 1002.15 / 998.01
time step continuity errors : sum local = 4.57552e-17, global = 1.64833e-17, cumulative = 0
max/min FaceSonicCourant: 0.00720432/0.00360208
max/min FaceSonicCourant: 0.00720432/0.00360208
ExecutionTime = 0.03 s  ClockTime = 0 s

Mean and max Characteristic Courant Numbers = 0.00360217 0.00720432
Courant Number max: 3.75362e-06
deltaT = 3.58316e-09
Time = 1.54991e-08

PIMPLE: iteration 1
diagonal:  Solving for rho, Initial residual = 0, Final residual = 0, No Iterations 0
rho max/min : 1002.15 / 998.01
Creating matrix for fvOptions
DILUPBiCGStab:  Solving for Y.Liq, Initial residual = 0.165171, Final residual = 1.46266e-17, No Iterations 1
Mass fraction min/max = 1/1
DILUPBiCGStab:  Solving for h, Initial residual = 0.141463, Final residual = 1.2677e-17, No Iterations 1
max/min cf_own:1508/1507.91
max/min cf_nei:1508/1507.91
DILUPBiCGStab:  Solving for p, Initial residual = 5.42933e-06, Final residual = 9.64253e-22, No Iterations 1
max(mag(U)): 0.0554409
max/min p: 1e+07/1e+06
diagonal:  Solving for rho, Initial residual = 0, Final residual = 0, No Iterations 0
rho max/min : 1002.15 / 998.01
time step continuity errors : sum local = 1.05152e-16, global = -5.74072e-17, cumulative = 0
max/min FaceSonicCourant: 0.00864519/0.00432246
max/min FaceSonicCourant: 0.00864519/0.00432246
PIMPLE: iteration 2
diagonal:  Solving for rho, Initial residual = 0, Final residual = 0, No Iterations 0
rho max/min : 1002.15 / 998.01
Creating matrix for fvOptions
DILUPBiCGStab:  Solving for Y.Liq, Initial residual = 0.0901288, Final residual = 7.84793e-18, No Iterations 1
Mass fraction min/max = 1/1
DILUPBiCGStab:  Solving for h, Initial residual = 0.000643492, Final residual = 2.10875e-19, No Iterations 1
max/min cf_own:1508/1507.91
max/min cf_nei:1508/1507.91
DILUPBiCGStab:  Solving for p, Initial residual = 1.17002e-08, Final residual = 9.63662e-25, No Iterations 1
max(mag(U)): 0.0554552
max/min p: 1e+07/1e+06
diagonal:  Solving for rho, Initial residual = 0, Final residual = 0, No Iterations 0
rho max/min : 1002.15 / 998.01
time step continuity errors : sum local = 8.92369e-17, global = -5.39969e-17, cumulative = 0
max/min FaceSonicCourant: 0.00864519/0.00432246
max/min FaceSonicCourant: 0.00864519/0.00432246
ExecutionTime = 0.04 s  ClockTime = 0 s

Mean and max Characteristic Courant Numbers = 0.00432261 0.00864519
Courant Number max: 4.50951e-06
deltaT = 4.29985e-09
Time = 1.9799e-08

PIMPLE: iteration 1
diagonal:  Solving for rho, Initial residual = 0, Final residual = 0, No Iterations 0
rho max/min : 1002.15 / 998.01
Creating matrix for fvOptions
DILUPBiCGStab:  Solving for Y.Liq, Initial residual = 0.0632184, Final residual = 4.87909e-18, No Iterations 1
Mass fraction min/max = 1/1
DILUPBiCGStab:  Solving for h, Initial residual = 0.128648, Final residual = 1.14207e-17, No Iterations 1
max/min cf_own:1508.02/1507.89
max/min cf_nei:1508.02/1507.89
DILUPBiCGStab:  Solving for p, Initial residual = 6.51055e-06, Final residual = 5.85372e-22, No Iterations 1
max(mag(U)): 0.0706675
max/min p: 1e+07/1e+06
diagonal:  Solving for rho, Initial residual = 0, Final residual = 0, No Iterations 0
rho max/min : 1002.15 / 998.01
time step continuity errors : sum local = 4.53289e-17, global = 2.31618e-17, cumulative = 0
max/min FaceSonicCourant: 0.0103744/0.00518698
max/min FaceSonicCourant: 0.0103744/0.00518698
PIMPLE: iteration 2
diagonal:  Solving for rho, Initial residual = 0, Final residual = 0, No Iterations 0
rho max/min : 1002.15 / 998.01
Creating matrix for fvOptions
DILUPBiCGStab:  Solving for Y.Liq, Initial residual = 0.0412551, Final residual = 2.14349e-18, No Iterations 1
Mass fraction min/max = 1/1
DILUPBiCGStab:  Solving for h, Initial residual = 0.000712639, Final residual = 3.9207e-20, No Iterations 1
max/min cf_own:1508.02/1507.89
max/min cf_nei:1508.02/1507.89
DILUPBiCGStab:  Solving for p, Initial residual = 1.67687e-08, Final residual = 2.25834e-24, No Iterations 1
max(mag(U)): 0.0706881
max/min p: 1e+07/1e+06
diagonal:  Solving for rho, Initial residual = 0, Final residual = 0, No Iterations 0
rho max/min : 1002.15 / 998.01
time step continuity errors : sum local = 4.47606e-17, global = 2.51512e-17, cumulative = 0
max/min FaceSonicCourant: 0.0103744/0.00518698
max/min FaceSonicCourant: 0.0103744/0.00518698
ExecutionTime = 0.04 s  ClockTime = 0 s

Mean and max Characteristic Courant Numbers = 0.0051872 0.0103744
Courant Number max: 5.41899e-06
deltaT = 5.15974e-09
Time = 2.49587e-08

PIMPLE: iteration 1
diagonal:  Solving for rho, Initial residual = 0, Final residual = 0, No Iterations 0
rho max/min : 1002.15 / 998.01
Creating matrix for fvOptions
DILUPBiCGStab:  Solving for Y.Liq, Initial residual = 0.124903, Final residual = 1.17824e-17, No Iterations 1
Mass fraction min/max = 1/1
DILUPBiCGStab:  Solving for h, Initial residual = 0.119417, Final residual = 3.25233e-17, No Iterations 1
max/min cf_own:1508.03/1507.88
max/min cf_nei:1508.03/1507.88
DILUPBiCGStab:  Solving for p, Initial residual = 7.80575e-06, Final residual = 1.1229e-23, No Iterations 1
max(mag(U)): 0.0888517
max/min p: 1e+07/1e+06
diagonal:  Solving for rho, Initial residual = 0, Final residual = 0, No Iterations 0
rho max/min : 1002.15 / 998.01
time step continuity errors : sum local = 9.39261e-17, global = 5.61283e-17, cumulative = 0
max/min FaceSonicCourant: 0.012449/0.0062242
max/min FaceSonicCourant: 0.012449/0.0062242
PIMPLE: iteration 2
diagonal:  Solving for rho, Initial residual = 0, Final residual = 0, No Iterations 0
rho max/min : 1002.15 / 998.01
Creating matrix for fvOptions
DILUPBiCGStab:  Solving for Y.Liq, Initial residual = 0.045911, Final residual = 5.04538e-18, No Iterations 1
Mass fraction min/max = 1/1
DILUPBiCGStab:  Solving for h, Initial residual = 0.000803595, Final residual = 7.50538e-20, No Iterations 1
max/min cf_own:1508.03/1507.88
max/min cf_nei:1508.03/1507.88
DILUPBiCGStab:  Solving for p, Initial residual = 2.40075e-08, Final residual = 1.37972e-24, No Iterations 1
max(mag(U)): 0.0888815
max/min p: 1e+07/1e+06
diagonal:  Solving for rho, Initial residual = 0, Final residual = 0, No Iterations 0
rho max/min : 1002.15 / 998.01
time step continuity errors : sum local = 6.5933e-17, global = 3.97872e-17, cumulative = 0
max/min FaceSonicCourant: 0.012449/0.0062242
max/min FaceSonicCourant: 0.012449/0.0062242
ExecutionTime = 0.04 s  ClockTime = 0 s

Mean and max Characteristic Courant Numbers = 0.00622454 0.012449
Courant Number max: 6.5136e-06
deltaT = 6.19156e-09
Time = 3.11503e-08

PIMPLE: iteration 1
diagonal:  Solving for rho, Initial residual = 0, Final residual = 0, No Iterations 0
rho max/min : 1002.15 / 998.01
Creating matrix for fvOptions
DILUPBiCGStab:  Solving for Y.Liq, Initial residual = 0.0515933, Final residual = 5.083e-18, No Iterations 1
Mass fraction min/max = 1/1
DILUPBiCGStab:  Solving for h, Initial residual = 0.112469, Final residual = 4.93208e-21, No Iterations 1
max/min cf_own:1508.05/1507.86
max/min cf_nei:1508.05/1507.86
DILUPBiCGStab:  Solving for p, Initial residual = 9.35703e-06, Final residual = 8.29859e-22, No Iterations 1
max(mag(U)): 0.110547
max/min p: 1e+07/1e+06
diagonal:  Solving for rho, Initial residual = 0, Final residual = 0, No Iterations 0
rho max/min : 1002.15 / 998.01
time step continuity errors : sum local = 7.1759e-17, global = -1.00889e-17, cumulative = 0
max/min FaceSonicCourant: 0.0149385/0.00746879
max/min FaceSonicCourant: 0.0149385/0.00746879
PIMPLE: iteration 2
diagonal:  Solving for rho, Initial residual = 0, Final residual = 0, No Iterations 0
rho max/min : 1002.15 / 998.01
Creating matrix for fvOptions
DILUPBiCGStab:  Solving for Y.Liq, Initial residual = 0.0199852, Final residual = 1.98251e-18, No Iterations 1
Mass fraction min/max = 1/1
DILUPBiCGStab:  Solving for h, Initial residual = 0.000918169, Final residual = 3.50401e-20, No Iterations 1
max/min cf_own:1508.05/1507.86
max/min cf_nei:1508.05/1507.86
DILUPBiCGStab:  Solving for p, Initial residual = 3.43411e-08, Final residual = 3.27506e-24, No Iterations 1
max(mag(U)): 0.11059
max/min p: 1e+07/1e+06
diagonal:  Solving for rho, Initial residual = 0, Final residual = 0, No Iterations 0
rho max/min : 1002.15 / 998.01
time step continuity errors : sum local = 5.69809e-17, global = -3.83662e-18, cumulative = 0
max/min FaceSonicCourant: 0.0149385/0.00746879
max/min FaceSonicCourant: 0.0149385/0.00746879
ExecutionTime = 0.05 s  ClockTime = 0 s

Mean and max Characteristic Courant Numbers = 0.00746929 0.0149385
Courant Number max: 7.8321e-06
deltaT = 7.42987e-09
Time = 3.85801e-08

PIMPLE: iteration 1
diagonal:  Solving for rho, Initial residual = 0, Final residual = 0, No Iterations 0
rho max/min : 1002.15 / 998.01
Creating matrix for fvOptions
DILUPBiCGStab:  Solving for Y.Liq, Initial residual = 0.296037, Final residual = 2.74791e-17, No Iterations 1
Mass fraction min/max = 1/1
DILUPBiCGStab:  Solving for h, Initial residual = 0.107043, Final residual = 1.20913e-18, No Iterations 1
max/min cf_own:1508.07/1507.84
max/min cf_nei:1508.07/1507.84
DILUPBiCGStab:  Solving for p, Initial residual = 1.12147e-05, Final residual = 3.91117e-27, No Iterations 1
max(mag(U)): 0.136403
max/min p: 1e+07/1e+06
diagonal:  Solving for rho, Initial residual = 0, Final residual = 0, No Iterations 0
rho max/min : 1002.15 / 998.01
time step continuity errors : sum local = 1.09415e-16, global = -7.90059e-17, cumulative = 0
max/min FaceSonicCourant: 0.0179262/0.00896242
max/min FaceSonicCourant: 0.0179262/0.00896242
PIMPLE: iteration 2
diagonal:  Solving for rho, Initial residual = 0, Final residual = 0, No Iterations 0
rho max/min : 1002.15 / 998.01
Creating matrix for fvOptions
DILUPBiCGStab:  Solving for Y.Liq, Initial residual = 0.146231, Final residual = 1.45131e-17, No Iterations 1
Mass fraction min/max = 1/1
DILUPBiCGStab:  Solving for h, Initial residual = 0.00105952, Final residual = 5.15225e-19, No Iterations 1
max/min cf_own:1508.07/1507.84
max/min cf_nei:1508.07/1507.84
DILUPBiCGStab:  Solving for p, Initial residual = 4.90606e-08, Final residual = 6.12704e-26, No Iterations 1
max(mag(U)): 0.136465
max/min p: 1e+07/1e+06
diagonal:  Solving for rho, Initial residual = 0, Final residual = 0, No Iterations 0
rho max/min : 1002.15 / 998.01
time step continuity errors : sum local = 8.41214e-17, global = -6.28069e-17, cumulative = 0
max/min FaceSonicCourant: 0.0179262/0.00896242
max/min FaceSonicCourant: 0.0179262/0.00896242
ExecutionTime = 0.05 s  ClockTime = 0 s

Mean and max Characteristic Courant Numbers = 0.00896315 0.0179262
Courant Number max: 9.42183e-06
deltaT = 8.91557e-09
Time = 4.74957e-08

PIMPLE: iteration 1
diagonal:  Solving for rho, Initial residual = 0, Final residual = 0, No Iterations 0
rho max/min : 1002.15 / 998.01
Creating matrix for fvOptions
DILUPBiCGStab:  Solving for Y.Liq, Initial residual = 0.353258, Final residual = 3.27149e-17, No Iterations 1
Mass fraction min/max = 1/1
DILUPBiCGStab:  Solving for h, Initial residual = 0.102654, Final residual = 1.04835e-17, No Iterations 1
max/min cf_own:1508.1/1507.81
max/min cf_nei:1508.1/1507.81
DILUPBiCGStab:  Solving for p, Initial residual = 1.34376e-05, Final residual = 3.85201e-23, No Iterations 1
max(mag(U)): 0.167172
max/min p: 1e+07/1e+06
diagonal:  Solving for rho, Initial residual = 0, Final residual = 0, No Iterations 0
rho max/min : 1002.15 / 998.01
time step continuity errors : sum local = 1.11404e-16, global = -3.89346e-17, cumulative = 0
max/min FaceSonicCourant: 0.0215109/0.0107544
max/min FaceSonicCourant: 0.0215109/0.0107544
PIMPLE: iteration 2
diagonal:  Solving for rho, Initial residual = 0, Final residual = 0, No Iterations 0
rho max/min : 1002.15 / 998.01
Creating matrix for fvOptions
DILUPBiCGStab:  Solving for Y.Liq, Initial residual = 0.298969, Final residual = 2.94766e-17, No Iterations 1
Mass fraction min/max = 1/1
DILUPBiCGStab:  Solving for h, Initial residual = 0.00123187, Final residual = 1.34028e-19, No Iterations 1
max/min cf_own:1508.1/1507.81
max/min cf_nei:1508.1/1507.81
DILUPBiCGStab:  Solving for p, Initial residual = 6.99631e-08, Final residual = 1.41421e-23, No Iterations 1
max(mag(U)): 0.167263
max/min p: 1e+07/1e+06
diagonal:  Solving for rho, Initial residual = 0, Final residual = 0, No Iterations 0
rho max/min : 1002.15 / 998.01
time step continuity errors : sum local = 7.23274e-17, global = -2.3446e-17, cumulative = 0
max/min FaceSonicCourant: 0.0215109/0.0107544
max/min FaceSonicCourant: 0.0215109/0.0107544
ExecutionTime = 0.05 s  ClockTime = 0 s

Mean and max Characteristic Courant Numbers = 0.0107555 0.0215109
Courant Number max: 1.134e-05
deltaT = 1.06981e-08
Time = 5.81938e-08

PIMPLE: iteration 1
diagonal:  Solving for rho, Initial residual = 0, Final residual = 0, No Iterations 0
rho max/min : 1002.15 / 998.01
Creating matrix for fvOptions
DILUPBiCGStab:  Solving for Y.Liq, Initial residual = 0.297659, Final residual = 2.88773e-17, No Iterations 1
Mass fraction min/max = 1/1
DILUPBiCGStab:  Solving for h, Initial residual = 0.0989825, Final residual = 1.02752e-17, No Iterations 1
max/min cf_own:1508.13/1507.78
max/min cf_nei:1508.13/1507.78
DILUPBiCGStab:  Solving for p, Initial residual = 1.60965e-05, Final residual = 1.5257e-21, No Iterations 1
max(mag(U)): 0.203728
max/min p: 1e+07/1e+06
diagonal:  Solving for rho, Initial residual = 0, Final residual = 0, No Iterations 0
rho max/min : 1002.15 / 998.01
time step continuity errors : sum local = 1.23909e-16, global = 6.08175e-17, cumulative = 0
max/min FaceSonicCourant: 0.0258116/0.0129043
max/min FaceSonicCourant: 0.0258116/0.0129043
PIMPLE: iteration 2
diagonal:  Solving for rho, Initial residual = 0, Final residual = 0, No Iterations 0
rho max/min : 1002.15 / 998.01
Creating matrix for fvOptions
DILUPBiCGStab:  Solving for Y.Liq, Initial residual = 0.203501, Final residual = 1.76109e-17, No Iterations 1
Mass fraction min/max = 1/1
DILUPBiCGStab:  Solving for h, Initial residual = 0.00144039, Final residual = 6.67852e-20, No Iterations 1
max/min cf_own:1508.13/1507.78
max/min cf_nei:1508.13/1507.78
DILUPBiCGStab:  Solving for p, Initial residual = 9.95506e-08, Final residual = 1.69373e-23, No Iterations 1
max(mag(U)): 0.203859
max/min p: 1e+07/1e+06
diagonal:  Solving for rho, Initial residual = 0, Final residual = 0, No Iterations 0
rho max/min : 1002.15 / 998.01
time step continuity errors : sum local = 9.80469e-17, global = 6.11017e-17, cumulative = 0
max/min FaceSonicCourant: 0.0258116/0.0129043
max/min FaceSonicCourant: 0.0258116/0.0129043
ExecutionTime = 0.06 s  ClockTime = 0 s

Mean and max Characteristic Courant Numbers = 0.0129059 0.0258116
Courant Number max: 1.36575e-05
deltaT = 1.28377e-08
Time = 7.10316e-08

PIMPLE: iteration 1
diagonal:  Solving for rho, Initial residual = 0, Final residual = 0, No Iterations 0
rho max/min : 1002.15 / 998.01
Creating matrix for fvOptions
DILUPBiCGStab:  Solving for Y.Liq, Initial residual = 0.304348, Final residual = 2.58714e-17, No Iterations 1
Mass fraction min/max = 1/1
DILUPBiCGStab:  Solving for h, Initial residual = 0.095814, Final residual = 9.00244e-18, No Iterations 1
max/min cf_own:1508.16/1507.74
max/min cf_nei:1508.16/1507.74
DILUPBiCGStab:  Solving for p, Initial residual = 1.92767e-05, Final residual = 2.20195e-22, No Iterations 1
max(mag(U)): 0.247073
max/min p: 1e+07/1e+06
diagonal:  Solving for rho, Initial residual = 0, Final residual = 0, No Iterations 0
rho max/min : 1002.15 / 998.01
time step continuity errors : sum local = 1.33997e-16, global = -7.65903e-17, cumulative = 0
max/min FaceSonicCourant: 0.030974/0.0154848
max/min FaceSonicCourant: 0.030974/0.0154848
PIMPLE: iteration 2
diagonal:  Solving for rho, Initial residual = 0, Final residual = 0, No Iterations 0
rho max/min : 1002.15 / 998.01
Creating matrix for fvOptions
DILUPBiCGStab:  Solving for Y.Liq, Initial residual = 0.20117, Final residual = 1.79701e-17, No Iterations 1
Mass fraction min/max = 1/1
DILUPBiCGStab:  Solving for h, Initial residual = 0.00169149, Final residual = 1.27864e-19, No Iterations 1
max/min cf_own:1508.16/1507.75
max/min cf_nei:1508.16/1507.75
DILUPBiCGStab:  Solving for p, Initial residual = 1.41285e-07, Final residual = 1.37118e-23, No Iterations 1
max(mag(U)): 0.247265
max/min p: 1e+07/1e+06
diagonal:  Solving for rho, Initial residual = 0, Final residual = 0, No Iterations 0
rho max/min : 1002.15 / 998.01
time step continuity errors : sum local = 1.2604e-16, global = -6.43699e-17, cumulative = 0
max/min FaceSonicCourant: 0.030974/0.0154848
max/min FaceSonicCourant: 0.030974/0.0154848
ExecutionTime = 0.06 s  ClockTime = 0 s

Mean and max Characteristic Courant Numbers = 0.015487 0.030974
Courant Number max: 1.64631e-05
deltaT = 1.54045e-08
Time = 8.6436e-08

PIMPLE: iteration 1
diagonal:  Solving for rho, Initial residual = 0, Final residual = 0, No Iterations 0
rho max/min : 1002.15 / 998.01
Creating matrix for fvOptions
DILUPBiCGStab:  Solving for Y.Liq, Initial residual = 0.282462, Final residual = 2.81836e-17, No Iterations 1
Mass fraction min/max = 1/1
DILUPBiCGStab:  Solving for h, Initial residual = 0.0929758, Final residual = 1.83397e-17, No Iterations 1
max/min cf_own:1508.2/1507.7
max/min cf_nei:1508.2/1507.7
DILUPBiCGStab:  Solving for p, Initial residual = 2.3076e-05, Final residual = 4.40229e-21, No Iterations 1
max(mag(U)): 0.298343
max/min p: 1e+07/1e+06
diagonal:  Solving for rho, Initial residual = 0, Final residual = 0, No Iterations 0
rho max/min : 1002.15 / 998.01
time step continuity errors : sum local = 1.27887e-16, global = -3.01246e-17, cumulative = 0
max/min FaceSonicCourant: 0.0371669/0.0185803
max/min FaceSonicCourant: 0.0371669/0.0185803
PIMPLE: iteration 2
diagonal:  Solving for rho, Initial residual = 0, Final residual = 0, No Iterations 0
rho max/min : 1002.15 / 998.01
Creating matrix for fvOptions
DILUPBiCGStab:  Solving for Y.Liq, Initial residual = 0.30137, Final residual = 3.10767e-17, No Iterations 1
Mass fraction min/max = 1/1
DILUPBiCGStab:  Solving for h, Initial residual = 0.0019926, Final residual = 2.61561e-19, No Iterations 1
max/min cf_own:1508.2/1507.71
max/min cf_nei:1508.2/1507.71
DILUPBiCGStab:  Solving for p, Initial residual = 1.99821e-07, Final residual = 1.62648e-23, No Iterations 1
max(mag(U)): 0.298622
max/min p: 1e+07/1e+06
diagonal:  Solving for rho, Initial residual = 0, Final residual = 0, No Iterations 0
rho max/min : 1002.15 / 998.01
time step continuity errors : sum local = 1.00463e-16, global = -2.28776e-17, cumulative = 0
max/min FaceSonicCourant: 0.0371669/0.0185803
max/min FaceSonicCourant: 0.0371669/0.0185803
ExecutionTime = 0.07 s  ClockTime = 0 s

Mean and max Characteristic Courant Numbers = 0.0185835 0.0371669
Courant Number max: 1.98644e-05
deltaT = 1.84854e-08
Time = 1.04921e-07

PIMPLE: iteration 1
diagonal:  Solving for rho, Initial residual = 0, Final residual = 0, No Iterations 0
rho max/min : 1002.15 / 998.01
Creating matrix for fvOptions
DILUPBiCGStab:  Solving for Y.Liq, Initial residual = 0.159909, Final residual = 1.59369e-17, No Iterations 1
Mass fraction min/max = 1/1
DILUPBiCGStab:  Solving for h, Initial residual = 0.0903565, Final residual = 1.44152e-17, No Iterations 1
max/min cf_own:1508.25/1507.66
max/min cf_nei:1508.25/1507.66
DILUPBiCGStab:  Solving for p, Initial residual = 2.7615e-05, Final residual = 2.6379e-21, No Iterations 1
max(mag(U)): 0.358815
max/min p: 1e+07/1e+06
diagonal:  Solving for rho, Initial residual = 0, Final residual = 0, No Iterations 0
rho max/min : 1002.15 / 998.01
time step continuity errors : sum local = 1.01173e-16, global = -7.10485e-18, cumulative = 0
max/min FaceSonicCourant: 0.0446002/0.0222957
max/min FaceSonicCourant: 0.0446002/0.0222957
PIMPLE: iteration 2
diagonal:  Solving for rho, Initial residual = 0, Final residual = 0, No Iterations 0
rho max/min : 1002.15 / 998.01
Creating matrix for fvOptions
DILUPBiCGStab:  Solving for Y.Liq, Initial residual = 0.103291, Final residual = 1.10363e-17, No Iterations 1
Mass fraction min/max = 1/1
DILUPBiCGStab:  Solving for h, Initial residual = 0.00235197, Final residual = 2.13617e-19, No Iterations 1
max/min cf_own:1508.25/1507.66
max/min cf_nei:1508.25/1507.66
DILUPBiCGStab:  Solving for p, Initial residual = 2.81439e-07, Final residual = 5.90449e-23, No Iterations 1
max(mag(U)): 0.359222
max/min p: 1e+07/1e+06
diagonal:  Solving for rho, Initial residual = 0, Final residual = 0, No Iterations 0
rho max/min : 1002.15 / 998.01
time step continuity errors : sum local = 8.22742e-17, global = -1.56307e-18, cumulative = 0
max/min FaceSonicCourant: 0.0446002/0.0222957
max/min FaceSonicCourant: 0.0446002/0.0222957
ExecutionTime = 0.07 s  ClockTime = 0 s

Mean and max Characteristic Courant Numbers = 0.0223002 0.0446002
Courant Number max: 2.40002e-05
deltaT = 2.21841e-08
Time = 1.27106e-07

PIMPLE: iteration 1
diagonal:  Solving for rho, Initial residual = 0, Final residual = 0, No Iterations 0
rho max/min : 1002.15 / 998.01
Creating matrix for fvOptions
DILUPBiCGStab:  Solving for Y.Liq, Initial residual = 0.152063, Final residual = 1.40171e-17, No Iterations 1
Mass fraction min/max = 1/1
DILUPBiCGStab:  Solving for h, Initial residual = 0.0878653, Final residual = 5.54826e-18, No Iterations 1
max/min cf_own:1508.3/1507.61
max/min cf_nei:1508.3/1507.61
DILUPBiCGStab:  Solving for p, Initial residual = 3.30357e-05, Final residual = 3.90411e-21, No Iterations 1
max(mag(U)): 0.429896
max/min p: 1e+07/1e+06
diagonal:  Solving for rho, Initial residual = 0, Final residual = 0, No Iterations 0
rho max/min : 1002.15 / 998.01
time step continuity errors : sum local = 1.21351e-16, global = 6.13859e-17, cumulative = 0
max/min FaceSonicCourant: 0.0535242/0.026756
max/min FaceSonicCourant: 0.0535242/0.026756
PIMPLE: iteration 2
diagonal:  Solving for rho, Initial residual = 0, Final residual = 0, No Iterations 0
rho max/min : 1002.15 / 998.01
Creating matrix for fvOptions
DILUPBiCGStab:  Solving for Y.Liq, Initial residual = 0.107626, Final residual = 9.00752e-18, No Iterations 1
Mass fraction min/max = 1/1
DILUPBiCGStab:  Solving for h, Initial residual = 0.00277905, Final residual = 7.92929e-21, No Iterations 1
max/min cf_own:1508.3/1507.61
max/min cf_nei:1508.3/1507.61
DILUPBiCGStab:  Solving for p, Initial residual = 3.94631e-07, Final residual = 9.31789e-25, No Iterations 1
max(mag(U)): 0.43049
max/min p: 1e+07/1e+06
diagonal:  Solving for rho, Initial residual = 0, Final residual = 0, No Iterations 0
rho max/min : 1002.15 / 998.01
time step continuity errors : sum local = 1.15099e-16, global = 7.01959e-17, cumulative = 0
max/min FaceSonicCourant: 0.0535242/0.026756
max/min FaceSonicCourant: 0.0535242/0.026756
ExecutionTime = 0.07 s  ClockTime = 0 s

Mean and max Characteristic Courant Numbers = 0.0267622 0.0535242
Courant Number max: 2.90454e-05
deltaT = 2.66186e-08
Time = 1.53724e-07

PIMPLE: iteration 1
diagonal:  Solving for rho, Initial residual = 0, Final residual = 0, No Iterations 0
rho max/min : 1002.15 / 998.01
Creating matrix for fvOptions
DILUPBiCGStab:  Solving for Y.Liq, Initial residual = 0.139884, Final residual = 1.19187e-17, No Iterations 1
Mass fraction min/max = 1/1
DILUPBiCGStab:  Solving for h, Initial residual = 0.0854154, Final residual = 1.8051e-17, No Iterations 1
max/min cf_own:1508.36/1507.55
max/min cf_nei:1508.36/1507.55
DILUPBiCGStab:  Solving for p, Initial residual = 3.94968e-05, Final residual = 9.06592e-22, No Iterations 1
max(mag(U)): 0.513084
max/min p: 1e+07/1e+06
diagonal:  Solving for rho, Initial residual = 0, Final residual = 0, No Iterations 0
rho max/min : 1002.15 / 998.01
time step continuity errors : sum local = 1.07567e-16, global = -1.69095e-17, cumulative = 0
max/min FaceSonicCourant: 0.0642234/0.0321031
max/min FaceSonicCourant: 0.0642234/0.0321031
PIMPLE: iteration 2
diagonal:  Solving for rho, Initial residual = 0, Final residual = 0, No Iterations 0
rho max/min : 1002.15 / 998.01
Creating matrix for fvOptions
DILUPBiCGStab:  Solving for Y.Liq, Initial residual = 0.118243, Final residual = 8.90336e-18, No Iterations 1
Mass fraction min/max = 1/1
DILUPBiCGStab:  Solving for h, Initial residual = 0.00328266, Final residual = 5.42013e-19, No Iterations 1
max/min cf_own:1508.36/1507.55
max/min cf_nei:1508.36/1507.55
DILUPBiCGStab:  Solving for p, Initial residual = 5.50765e-07, Final residual = 4.64715e-25, No Iterations 1
max(mag(U)): 0.513951
max/min p: 1e+07/1e+06
diagonal:  Solving for rho, Initial residual = 0, Final residual = 0, No Iterations 0
rho max/min : 1002.15 / 998.01
time step continuity errors : sum local = 9.43524e-17, global = -1.1652e-17, cumulative = 0
max/min FaceSonicCourant: 0.0642234/0.0321031
max/min FaceSonicCourant: 0.0642234/0.0321031
ExecutionTime = 0.08 s  ClockTime = 0 s

Mean and max Characteristic Courant Numbers = 0.0321118 0.0642234
Courant Number max: 3.52151e-05
deltaT = 3.19406e-08
Time = 1.85665e-07

PIMPLE: iteration 1
diagonal:  Solving for rho, Initial residual = 0, Final residual = 0, No Iterations 0
rho max/min : 1002.15 / 998.01
Creating matrix for fvOptions
DILUPBiCGStab:  Solving for Y.Liq, Initial residual = 0.094881, Final residual = 8.73417e-18, No Iterations 1
Mass fraction min/max = 1/1
DILUPBiCGStab:  Solving for h, Initial residual = 0.0829797, Final residual = 1.37204e-17, No Iterations 1
max/min cf_own:1508.42/1507.49
max/min cf_nei:1508.42/1507.49
DILUPBiCGStab:  Solving for p, Initial residual = 4.72042e-05, Final residual = 4.88685e-21, No Iterations 1
max(mag(U)): 0.609949
max/min p: 1e+07/1e+06
diagonal:  Solving for rho, Initial residual = 0, Final residual = 0, No Iterations 0
rho max/min : 1002.15 / 998.01
time step continuity errors : sum local = 1.11688e-16, global = -2.67142e-17, cumulative = 0
max/min FaceSonicCourant: 0.0770639/0.0385201
max/min FaceSonicCourant: 0.0770639/0.0385201
PIMPLE: iteration 2
diagonal:  Solving for rho, Initial residual = 0, Final residual = 0, No Iterations 0
rho max/min : 1002.15 / 998.01
Creating matrix for fvOptions
DILUPBiCGStab:  Solving for Y.Liq, Initial residual = 0.0890897, Final residual = 9.13639e-18, No Iterations 1
Mass fraction min/max = 1/1
DILUPBiCGStab:  Solving for h, Initial residual = 0.00387082, Final residual = 3.23248e-19, No Iterations 1
max/min cf_own:1508.42/1507.49
max/min cf_nei:1508.42/1507.49
DILUPBiCGStab:  Solving for p, Initial residual = 7.62714e-07, Final residual = 2.15889e-24, No Iterations 1
max(mag(U)): 0.611218
max/min p: 1e+07/1e+06
diagonal:  Solving for rho, Initial residual = 0, Final residual = 0, No Iterations 0
rho max/min : 1002.15 / 998.01
time step continuity errors : sum local = 9.44945e-17, global = -2.4867e-17, cumulative = 0
max/min FaceSonicCourant: 0.0770639/0.0385201
max/min FaceSonicCourant: 0.0770639/0.0385201
ExecutionTime = 0.08 s  ClockTime = 0 s

Mean and max Characteristic Courant Numbers = 0.0385321 0.0770639
Courant Number max: 4.28021e-05
deltaT = 3.83312e-08
Time = 2.23996e-07

PIMPLE: iteration 1
diagonal:  Solving for rho, Initial residual = 0, Final residual = 0, No Iterations 0
rho max/min : 1002.15 / 998.01
Creating matrix for fvOptions
DILUPBiCGStab:  Solving for Y.Liq, Initial residual = 0.175605, Final residual = 1.62314e-17, No Iterations 1
Mass fraction min/max = 1/1
DILUPBiCGStab:  Solving for h, Initial residual = 0.0805419, Final residual = 1.02886e-17, No Iterations 1
max/min cf_own:1508.48/1507.42
max/min cf_nei:1508.48/1507.42
DILUPBiCGStab:  Solving for p, Initial residual = 5.6404e-05, Final residual = 1.60776e-22, No Iterations 1
max(mag(U)): 0.722059
max/min p: 1e+07/1e+06
diagonal:  Solving for rho, Initial residual = 0, Final residual = 0, No Iterations 0
rho max/min : 1002.15 / 998.01
time step continuity errors : sum local = 1.20498e-16, global = 2.47249e-17, cumulative = 0
max/min FaceSonicCourant: 0.0924826/0.046225
max/min FaceSonicCourant: 0.0924826/0.046225
PIMPLE: iteration 2
diagonal:  Solving for rho, Initial residual = 0, Final residual = 0, No Iterations 0
rho max/min : 1002.15 / 998.01
Creating matrix for fvOptions
DILUPBiCGStab:  Solving for Y.Liq, Initial residual = 0.11054, Final residual = 1.06801e-17, No Iterations 1
Mass fraction min/max = 1/1
DILUPBiCGStab:  Solving for h, Initial residual = 0.00455017, Final residual = 1.62871e-19, No Iterations 1
max/min cf_own:1508.48/1507.43
max/min cf_nei:1508.48/1507.43
DILUPBiCGStab:  Solving for p, Initial residual = 1.04581e-06, Final residual = 5.19721e-24, No Iterations 1
max(mag(U)): 0.723916
max/min p: 1e+07/1e+06
diagonal:  Solving for rho, Initial residual = 0, Final residual = 0, No Iterations 0
rho max/min : 1002.15 / 998.01
time step continuity errors : sum local = 1.03305e-16, global = 1.29308e-17, cumulative = 0
max/min FaceSonicCourant: 0.0924826/0.0462251
max/min FaceSonicCourant: 0.0924826/0.0462251
ExecutionTime = 0.08 s  ClockTime = 0 s

Mean and max Characteristic Courant Numbers = 0.0462415 0.0924826
Courant Number max: 5.21885e-05
deltaT = 4.60009e-08
Time = 2.69997e-07

PIMPLE: iteration 1
diagonal:  Solving for rho, Initial residual = 0, Final residual = 0, No Iterations 0
rho max/min : 1002.15 / 998.01
Creating matrix for fvOptions
DILUPBiCGStab:  Solving for Y.Liq, Initial residual = 0.159831, Final residual = 1.42984e-17, No Iterations 1
Mass fraction min/max = 1/1
DILUPBiCGStab:  Solving for h, Initial residual = 0.0780995, Final residual = 1.18701e-17, No Iterations 1
max/min cf_own:1508.55/1507.35
max/min cf_nei:1508.55/1507.35
DILUPBiCGStab:  Solving for p, Initial residual = 6.7386e-05, Final residual = 4.72948e-21, No Iterations 1
max(mag(U)): 0.850846
max/min p: 1e+07/1e+06
diagonal:  Solving for rho, Initial residual = 0, Final residual = 0, No Iterations 0
rho max/min : 1002.15 / 998.01
time step continuity errors : sum local = 1.21635e-16, global = -3.72294e-17, cumulative = 0
max/min FaceSonicCourant: 0.110988/0.0554717
max/min FaceSonicCourant: 0.110988/0.0554717
PIMPLE: iteration 2
diagonal:  Solving for rho, Initial residual = 0, Final residual = 0, No Iterations 0
rho max/min : 1002.15 / 998.01
Creating matrix for fvOptions
DILUPBiCGStab:  Solving for Y.Liq, Initial residual = 0.140679, Final residual = 1.1377e-17, No Iterations 1
Mass fraction min/max = 1/1
DILUPBiCGStab:  Solving for h, Initial residual = 0.00532062, Final residual = 1.2046e-18, No Iterations 1
max/min cf_own:1508.55/1507.36
max/min cf_nei:1508.55/1507.36
DILUPBiCGStab:  Solving for p, Initial residual = 1.41514e-06, Final residual = 9.09826e-24, No Iterations 1
max(mag(U)): 0.853562
max/min p: 1e+07/1e+06
diagonal:  Solving for rho, Initial residual = 0, Final residual = 0, No Iterations 0
rho max/min : 1002.15 / 998.01
time step continuity errors : sum local = 1.14246e-16, global = -3.9503e-17, cumulative = 0
max/min FaceSonicCourant: 0.110988/0.0554719
max/min FaceSonicCourant: 0.110988/0.0554719
ExecutionTime = 0.09 s  ClockTime = 0 s

Mean and max Characteristic Courant Numbers = 0.0554941 0.110988
Courant Number max: 6.38715e-05
deltaT = 5.51909e-08
Time = 3.25188e-07

PIMPLE: iteration 1
diagonal:  Solving for rho, Initial residual = 0, Final residual = 0, No Iterations 0
rho max/min : 1002.15 / 998.01
Creating matrix for fvOptions
DILUPBiCGStab:  Solving for Y.Liq, Initial residual = 0.132459, Final residual = 1.05947e-17, No Iterations 1
Mass fraction min/max = 1/1
DILUPBiCGStab:  Solving for h, Initial residual = 0.0756764, Final residual = 1.4317e-17, No Iterations 1
max/min cf_own:1508.62/1507.28
max/min cf_nei:1508.62/1507.28
DILUPBiCGStab:  Solving for p, Initial residual = 8.04923e-05, Final residual = 1.88621e-20, No Iterations 1
max(mag(U)): 0.99741
max/min p: 1e+07/1e+06
diagonal:  Solving for rho, Initial residual = 0, Final residual = 0, No Iterations 0
rho max/min : 1002.15 / 998.01
time step continuity errors : sum local = 1.31156e-16, global = 4.81709e-17, cumulative = 0
max/min FaceSonicCourant: 0.133161/0.0665507
max/min FaceSonicCourant: 0.133161/0.0665507
PIMPLE: iteration 2
diagonal:  Solving for rho, Initial residual = 0, Final residual = 0, No Iterations 0
rho max/min : 1002.15 / 998.01
Creating matrix for fvOptions
DILUPBiCGStab:  Solving for Y.Liq, Initial residual = 0.151926, Final residual = 1.19007e-17, No Iterations 1
Mass fraction min/max = 1/1
DILUPBiCGStab:  Solving for h, Initial residual = 0.00616895, Final residual = 8.24259e-19, No Iterations 1
max/min cf_own:1508.62/1507.29
max/min cf_nei:1508.62/1507.29
DILUPBiCGStab:  Solving for p, Initial residual = 1.8807e-06, Final residual = 1.24802e-22, No Iterations 1
max(mag(U)): 1.00137
max/min p: 1e+07/1e+06
diagonal:  Solving for rho, Initial residual = 0, Final residual = 0, No Iterations 0
rho max/min : 1002.15 / 998.01
time step continuity errors : sum local = 1.14956e-16, global = 4.76025e-17, cumulative = 0
max/min FaceSonicCourant: 0.133161/0.0665509
max/min FaceSonicCourant: 0.133161/0.0665509
ExecutionTime = 0.09 s  ClockTime = 0 s

Mean and max Characteristic Courant Numbers = 0.0665806 0.133161
Courant Number max: 7.85005e-05
deltaT = 6.62291e-08
Time = 3.91417e-07

PIMPLE: iteration 1
diagonal:  Solving for rho, Initial residual = 0, Final residual = 0, No Iterations 0
rho max/min : 1002.15 / 998.01
Creating matrix for fvOptions
DILUPBiCGStab:  Solving for Y.Liq, Initial residual = 0.124449, Final residual = 1.24178e-17, No Iterations 1
Mass fraction min/max = 1/1
DILUPBiCGStab:  Solving for h, Initial residual = 0.0733927, Final residual = 2.2112e-17, No Iterations 1
max/min cf_own:1508.69/1507.22
max/min cf_nei:1508.69/1507.22
DILUPBiCGStab:  Solving for p, Initial residual = 9.62202e-05, Final residual = 2.57362e-21, No Iterations 1
max(mag(U)): 1.16238
max/min p: 1e+07/1e+06
diagonal:  Solving for rho, Initial residual = 0, Final residual = 0, No Iterations 0
rho max/min : 1002.15 / 998.01
time step continuity errors : sum local = 1.1993e-16, global = 4.66078e-17, cumulative = 0
max/min FaceSonicCourant: 0.159793/0.0798573
max/min FaceSonicCourant: 0.159793/0.0798573
PIMPLE: iteration 2
diagonal:  Solving for rho, Initial residual = 0, Final residual = 0, No Iterations 0
rho max/min : 1002.15 / 998.01
Creating matrix for fvOptions
DILUPBiCGStab:  Solving for Y.Liq, Initial residual = 0.0865209, Final residual = 7.57922e-18, No Iterations 1
Mass fraction min/max = 1/1
DILUPBiCGStab:  Solving for h, Initial residual = 0.00706679, Final residual = 6.92296e-19, No Iterations 1
max/min cf_own:1508.68/1507.22
max/min cf_nei:1508.68/1507.22
DILUPBiCGStab:  Solving for p, Initial residual = 2.44235e-06, Final residual = 5.82644e-22, No Iterations 1
max(mag(U)): 1.16814
max/min p: 1e+07/1e+06
diagonal:  Solving for rho, Initial residual = 0, Final residual = 0, No Iterations 0
rho max/min : 1002.15 / 998.01
time step continuity errors : sum local = 1.03305e-16, global = 4.30554e-17, cumulative = 0
max/min FaceSonicCourant: 0.159793/0.0798576
max/min FaceSonicCourant: 0.159793/0.0798576
ExecutionTime = 0.1 s  ClockTime = 0 s

Mean and max Characteristic Courant Numbers = 0.0798968 0.159793
Courant Number max: 9.70085e-05
deltaT = 7.94961e-08
Time = 4.70913e-07

PIMPLE: iteration 1
diagonal:  Solving for rho, Initial residual = 0, Final residual = 0, No Iterations 0
rho max/min : 1002.15 / 998.01
Creating matrix for fvOptions
DILUPBiCGStab:  Solving for Y.Liq, Initial residual = 0.129341, Final residual = 1.17995e-17, No Iterations 1
Mass fraction min/max = 1/1
DILUPBiCGStab:  Solving for h, Initial residual = 0.071388, Final residual = 5.034e-18, No Iterations 1
max/min cf_own:1508.75/1507.15
max/min cf_nei:1508.75/1507.15
DILUPBiCGStab:  Solving for p, Initial residual = 0.000115192, Final residual = 8.42925e-21, No Iterations 1
max(mag(U)): 1.34556
max/min p: 1e+07/1e+06
diagonal:  Solving for rho, Initial residual = 0, Final residual = 0, No Iterations 0
rho max/min : 1002.15 / 998.01
time step continuity errors : sum local = 1.39966e-16, global = 6.1528e-17, cumulative = 0
max/min FaceSonicCourant: 0.191802/0.0958503
max/min FaceSonicCourant: 0.191802/0.0958503
PIMPLE: iteration 2
diagonal:  Solving for rho, Initial residual = 0, Final residual = 0, No Iterations 0
rho max/min : 1002.15 / 998.01
Creating matrix for fvOptions
DILUPBiCGStab:  Solving for Y.Liq, Initial residual = 0.101284, Final residual = 9.91816e-18, No Iterations 1
Mass fraction min/max = 1/1
DILUPBiCGStab:  Solving for h, Initial residual = 0.00795664, Final residual = 5.89932e-19, No Iterations 1
max/min cf_own:1508.75/1507.16
max/min cf_nei:1508.75/1507.16
DILUPBiCGStab:  Solving for p, Initial residual = 3.07261e-06, Final residual = 4.33622e-23, No Iterations 1
max(mag(U)): 1.35391
max/min p: 1e+07/1e+06
diagonal:  Solving for rho, Initial residual = 0, Final residual = 0, No Iterations 0
rho max/min : 1002.15 / 998.01
time step continuity errors : sum local = 1.25187e-16, global = 5.66967e-17, cumulative = 0
max/min FaceSonicCourant: 0.191802/0.0958507
max/min FaceSonicCourant: 0.191802/0.0958507
ExecutionTime = 0.1 s  ClockTime = 0 s

Mean and max Characteristic Courant Numbers = 0.0959017 0.191802
Courant Number max: 0.000120636
deltaT = 9.54258e-08
Time = 5.66339e-07

PIMPLE: iteration 1
diagonal:  Solving for rho, Initial residual = 0, Final residual = 0, No Iterations 0
rho max/min : 1002.15 / 998.01
Creating matrix for fvOptions
DILUPBiCGStab:  Solving for Y.Liq, Initial residual = 0.133769, Final residual = 1.15211e-17, No Iterations 1
Mass fraction min/max = 1/1
DILUPBiCGStab:  Solving for h, Initial residual = 0.0698369, Final residual = 5.03863e-18, No Iterations 1
max/min cf_own:1508.81/1507.1
max/min cf_nei:1508.81/1507.1
DILUPBiCGStab:  Solving for p, Initial residual = 0.000138194, Final residual = 2.75508e-20, No Iterations 1
max(mag(U)): 1.54556
max/min p: 1e+07/1e+06
diagonal:  Solving for rho, Initial residual = 0, Final residual = 0, No Iterations 0
rho max/min : 1002.15 / 998.01
time step continuity errors : sum local = 1.62559e-16, global = 1.47781e-17, cumulative = 0
max/min FaceSonicCourant: 0.230236/0.115053
max/min FaceSonicCourant: 0.230236/0.115053
PIMPLE: iteration 2
diagonal:  Solving for rho, Initial residual = 0, Final residual = 0, No Iterations 0
rho max/min : 1002.15 / 998.01
Creating matrix for fvOptions
DILUPBiCGStab:  Solving for Y.Liq, Initial residual = 0.137278, Final residual = 1.34546e-17, No Iterations 1
Mass fraction min/max = 1/1
DILUPBiCGStab:  Solving for h, Initial residual = 0.0087172, Final residual = 1.10776e-18, No Iterations 1
max/min cf_own:1508.8/1507.11
max/min cf_nei:1508.8/1507.11
DILUPBiCGStab:  Solving for p, Initial residual = 3.69391e-06, Final residual = 1.19928e-22, No Iterations 1
max(mag(U)): 1.55753
max/min p: 1e+07/1e+06
diagonal:  Solving for rho, Initial residual = 0, Final residual = 0, No Iterations 0
rho max/min : 1002.15 / 998.01
time step continuity errors : sum local = 1.44939e-16, global = 1.30729e-17, cumulative = 0
max/min FaceSonicCourant: 0.230236/0.115054
max/min FaceSonicCourant: 0.230236/0.115054
ExecutionTime = 0.11 s  ClockTime = 0 s

Mean and max Characteristic Courant Numbers = 0.115119 0.230236
Courant Number max: 0.000151007
deltaT = 1.14555e-07
Time = 6.80894e-07

PIMPLE: iteration 1
diagonal:  Solving for rho, Initial residual = 0, Final residual = 0, No Iterations 0
rho max/min : 1002.15 / 998.01
Creating matrix for fvOptions
DILUPBiCGStab:  Solving for Y.Liq, Initial residual = 0.152005, Final residual = 1.21009e-17, No Iterations 1
Mass fraction min/max = 1/1
DILUPBiCGStab:  Solving for h, Initial residual = 0.0689755, Final residual = 4.67372e-18, No Iterations 1
max/min cf_own:1508.85/1507.06
max/min cf_nei:1508.85/1507.06
DILUPBiCGStab:  Solving for p, Initial residual = 0.000166296, Final residual = 1.97812e-20, No Iterations 1
max(mag(U)): 1.75934
max/min p: 1e+07/1e+06
diagonal:  Solving for rho, Initial residual = 0, Final residual = 0, No Iterations 0
rho max/min : 1002.15 / 998.01
time step continuity errors : sum local = 1.6668e-16, global = 8.66792e-18, cumulative = 0
max/min FaceSonicCourant: 0.27639/0.138112
max/min FaceSonicCourant: 0.27639/0.138112
PIMPLE: iteration 2
diagonal:  Solving for rho, Initial residual = 0, Final residual = 0, No Iterations 0
rho max/min : 1002.15 / 998.01
Creating matrix for fvOptions
DILUPBiCGStab:  Solving for Y.Liq, Initial residual = 0.141618, Final residual = 1.15141e-17, No Iterations 1
Mass fraction min/max = 1/1
DILUPBiCGStab:  Solving for h, Initial residual = 0.0113348, Final residual = 2.00624e-18, No Iterations 1
max/min cf_own:1508.84/1507.07
max/min cf_nei:1508.84/1507.07
DILUPBiCGStab:  Solving for p, Initial residual = 4.16279e-06, Final residual = 3.71024e-22, No Iterations 1
max(mag(U)): 1.7763
max/min p: 1e+07/1e+06
diagonal:  Solving for rho, Initial residual = 0, Final residual = 0, No Iterations 0
rho max/min : 1002.15 / 998.01
time step continuity errors : sum local = 1.42523e-16, global = 3.55243e-18, cumulative = 0
max/min FaceSonicCourant: 0.27639/0.138114
max/min FaceSonicCourant: 0.27639/0.138114
ExecutionTime = 0.11 s  ClockTime = 0 s

Mean and max Characteristic Courant Numbers = 0.138196 0.27639
Courant Number max: 0.000190287
deltaT = 1.37561e-07
Time = 8.18455e-07

PIMPLE: iteration 1
diagonal:  Solving for rho, Initial residual = 0, Final residual = 0, No Iterations 0
rho max/min : 1002.15 / 998.01
Creating matrix for fvOptions
DILUPBiCGStab:  Solving for Y.Liq, Initial residual = 0.118162, Final residual = 1.08825e-17, No Iterations 1
Mass fraction min/max = 1/1
DILUPBiCGStab:  Solving for h, Initial residual = 0.0691928, Final residual = 1.25931e-17, No Iterations 1
max/min cf_own:1508.87/1507.03
max/min cf_nei:1508.87/1507.03
DILUPBiCGStab:  Solving for p, Initial residual = 0.00020095, Final residual = 4.31687e-20, No Iterations 1
max(mag(U)): 1.98194
max/min p: 1e+07/1e+06
diagonal:  Solving for rho, Initial residual = 0, Final residual = 0, No Iterations 0
rho max/min : 1002.15 / 998.01
time step continuity errors : sum local = 1.39113e-16, global = 7.81534e-18, cumulative = 0
max/min FaceSonicCourant: 0.331897/0.165847
max/min FaceSonicCourant: 0.331897/0.165847
PIMPLE: iteration 2
diagonal:  Solving for rho, Initial residual = 0, Final residual = 0, No Iterations 0
rho max/min : 1002.15 / 998.01
Creating matrix for fvOptions
DILUPBiCGStab:  Solving for Y.Liq, Initial residual = 0.145293, Final residual = 1.29892e-17, No Iterations 1
Mass fraction min/max = 1/1
DILUPBiCGStab:  Solving for h, Initial residual = 0.013417, Final residual = 1.19383e-18, No Iterations 1
max/min cf_own:1508.86/1507.05
max/min cf_nei:1508.86/1507.05
DILUPBiCGStab:  Solving for p, Initial residual = 4.21211e-06, Final residual = 1.51747e-22, No Iterations 1
max(mag(U)): 2.00551
max/min p: 1e+07/1e+06
diagonal:  Solving for rho, Initial residual = 0, Final residual = 0, No Iterations 0
rho max/min : 1002.15 / 998.01
time step continuity errors : sum local = 1.31013e-16, global = -8.52582e-18, cumulative = 0
max/min FaceSonicCourant: 0.331897/0.165849
max/min FaceSonicCourant: 0.331897/0.165849
ExecutionTime = 0.11 s  ClockTime = 0 s

Mean and max Characteristic Courant Numbers = 0.16595 0.331897
Courant Number max: 0.000241304
deltaT = 1.65028e-07
Time = 9.83482e-07

PIMPLE: iteration 1
diagonal:  Solving for rho, Initial residual = 0, Final residual = 0, No Iterations 0
rho max/min : 1002.15 / 998.01
Creating matrix for fvOptions
DILUPBiCGStab:  Solving for Y.Liq, Initial residual = 0.13706, Final residual = 1.28923e-17, No Iterations 1
Mass fraction min/max = 1/1
DILUPBiCGStab:  Solving for h, Initial residual = 0.0707583, Final residual = 1.39843e-17, No Iterations 1
max/min cf_own:1508.88/1507.03
max/min cf_nei:1508.88/1507.03
DILUPBiCGStab:  Solving for p, Initial residual = 0.000243611, Final residual = 2.79627e-20, No Iterations 1
max(mag(U)): 2.20597
max/min p: 1e+07/1e+06
diagonal:  Solving for rho, Initial residual = 0, Final residual = 0, No Iterations 0
rho max/min : 1002.15 / 998.01
time step continuity errors : sum local = 1.57301e-16, global = 1.17941e-17, cumulative = 0
max/min FaceSonicCourant: 0.398166/0.198961
max/min FaceSonicCourant: 0.398166/0.198961
PIMPLE: iteration 2
diagonal:  Solving for rho, Initial residual = 0, Final residual = 0, No Iterations 0
rho max/min : 1002.15 / 998.01
Creating matrix for fvOptions
DILUPBiCGStab:  Solving for Y.Liq, Initial residual = 0.12931, Final residual = 1.21158e-17, No Iterations 1
Mass fraction min/max = 1/1
DILUPBiCGStab:  Solving for h, Initial residual = 0.0147159, Final residual = 9.44374e-19, No Iterations 1
max/min cf_own:1508.85/1507.05
max/min cf_nei:1508.85/1507.05
DILUPBiCGStab:  Solving for p, Initial residual = 3.67132e-06, Final residual = 5.05055e-23, No Iterations 1
max(mag(U)): 2.23783
max/min p: 1e+07/1e+06
diagonal:  Solving for rho, Initial residual = 0, Final residual = 0, No Iterations 0
rho max/min : 1002.15 / 998.01
time step continuity errors : sum local = 1.41671e-16, global = -1.42097e-19, cumulative = 0
max/min FaceSonicCourant: 0.398166/0.198963
max/min FaceSonicCourant: 0.398166/0.198963
ExecutionTime = 0.12 s  ClockTime = 0 s

Mean and max Characteristic Courant Numbers = 0.199085 0.398166
Courant Number max: 0.000307088
deltaT = 1.98033e-07
Time = 1.18152e-06

PIMPLE: iteration 1
diagonal:  Solving for rho, Initial residual = 0, Final residual = 0, No Iterations 0
rho max/min : 1002.15 / 998.01
Creating matrix for fvOptions
DILUPBiCGStab:  Solving for Y.Liq, Initial residual = 0.145754, Final residual = 1.27993e-17, No Iterations 1
Mass fraction min/max = 1/1
DILUPBiCGStab:  Solving for h, Initial residual = 0.0757884, Final residual = 9.1604e-18, No Iterations 1
max/min cf_own:1509.03/1506.88
max/min cf_nei:1509.03/1506.88
DILUPBiCGStab:  Solving for p, Initial residual = 0.000296528, Final residual = 2.11299e-20, No Iterations 1
max(mag(U)): 2.42212
max/min p: 1e+07/1e+06
diagonal:  Solving for rho, Initial residual = 0, Final residual = 0, No Iterations 0
rho max/min : 1002.15 / 998.01
time step continuity errors : sum local = 1.63696e-16, global = 1.67674e-17, cumulative = 0
max/min FaceSonicCourant: 0.4778/0.238729
max/min FaceSonicCourant: 0.4778/0.238729
PIMPLE: iteration 2
diagonal:  Solving for rho, Initial residual = 0, Final residual = 0, No Iterations 0
rho max/min : 1002.15 / 998.01
Creating matrix for fvOptions
DILUPBiCGStab:  Solving for Y.Liq, Initial residual = 0.1445, Final residual = 1.25847e-17, No Iterations 1
Mass fraction min/max = 1/1
DILUPBiCGStab:  Solving for h, Initial residual = 0.0123496, Final residual = 1.93122e-18, No Iterations 1
max/min cf_own:1509.04/1506.87
max/min cf_nei:1509.04/1506.87
DILUPBiCGStab:  Solving for p, Initial residual = 7.01152e-06, Final residual = 8.41885e-22, No Iterations 1
max(mag(U)): 2.46298
max/min p: 1e+07/1e+06
diagonal:  Solving for rho, Initial residual = 0, Final residual = 0, No Iterations 0
rho max/min : 1002.15 / 998.01
time step continuity errors : sum local = 1.47781e-16, global = 2.84194e-18, cumulative = 0
max/min FaceSonicCourant: 0.4778/0.238728
max/min FaceSonicCourant: 0.4778/0.238728
ExecutionTime = 0.12 s  ClockTime = 0 s

Mean and max Characteristic Courant Numbers = 0.238902 0.4778
Courant Number max: 0.000391403
deltaT = 2.00037e-07
Time = 1.38155e-06

PIMPLE: iteration 1
diagonal:  Solving for rho, Initial residual = 0, Final residual = 0, No Iterations 0
rho max/min : 1002.15 / 998.01
Creating matrix for fvOptions
DILUPBiCGStab:  Solving for Y.Liq, Initial residual = 0.15285, Final residual = 1.42206e-17, No Iterations 1
Mass fraction min/max = 1/1
DILUPBiCGStab:  Solving for h, Initial residual = 0.0764092, Final residual = 9.95146e-18, No Iterations 1
max/min cf_own:1509.23/1506.67
max/min cf_nei:1509.23/1506.67
DILUPBiCGStab:  Solving for p, Initial residual = 0.000300958, Final residual = 2.47586e-20, No Iterations 1
max(mag(U)): 2.6278
max/min p: 1e+07/1e+06
diagonal:  Solving for rho, Initial residual = 0, Final residual = 0, No Iterations 0
rho max/min : 1002.15 / 998.01
time step continuity errors : sum local = 1.60285e-16, global = -1.10836e-17, cumulative = 0
max/min FaceSonicCourant: 0.482636/0.241113
max/min FaceSonicCourant: 0.482636/0.241113
PIMPLE: iteration 2
diagonal:  Solving for rho, Initial residual = 0, Final residual = 0, No Iterations 0
rho max/min : 1002.15 / 998.01
Creating matrix for fvOptions
DILUPBiCGStab:  Solving for Y.Liq, Initial residual = 0.173263, Final residual = 1.57865e-17, No Iterations 1
Mass fraction min/max = 1/1
DILUPBiCGStab:  Solving for h, Initial residual = 0.010656, Final residual = 1.13943e-18, No Iterations 1
max/min cf_own:1509.24/1506.67
max/min cf_nei:1509.24/1506.67
DILUPBiCGStab:  Solving for p, Initial residual = 4.33933e-06, Final residual = 3.30454e-22, No Iterations 1
max(mag(U)): 2.6581
max/min p: 1e+07/1e+06
diagonal:  Solving for rho, Initial residual = 0, Final residual = 0, No Iterations 0
rho max/min : 1002.15 / 998.01
time step continuity errors : sum local = 1.51333e-16, global = -1.49202e-17, cumulative = 0
max/min FaceSonicCourant: 0.482636/0.241112
max/min FaceSonicCourant: 0.482636/0.241112
ExecutionTime = 0.12 s  ClockTime = 0 s

Mean and max Characteristic Courant Numbers = 0.24132 0.482636
Courant Number max: 0.000419408
deltaT = 2.00037e-07
Time = 1.58159e-06

PIMPLE: iteration 1
diagonal:  Solving for rho, Initial residual = 0, Final residual = 0, No Iterations 0
rho max/min : 1002.15 / 998.01
Creating matrix for fvOptions
DILUPBiCGStab:  Solving for Y.Liq, Initial residual = 0.1416, Final residual = 1.34695e-17, No Iterations 1
Mass fraction min/max = 1/1
DILUPBiCGStab:  Solving for h, Initial residual = 0.0703086, Final residual = 8.54e-18, No Iterations 1
max/min cf_own:1509.43/1506.48
max/min cf_nei:1509.43/1506.48
DILUPBiCGStab:  Solving for p, Initial residual = 0.000304473, Final residual = 5.75322e-20, No Iterations 1
max(mag(U)): 2.79297
max/min p: 1e+07/1e+06
diagonal:  Solving for rho, Initial residual = 0, Final residual = 0, No Iterations 0
rho max/min : 1002.15 / 998.01
time step continuity errors : sum local = 1.66254e-16, global = -1.50623e-17, cumulative = 0
max/min FaceSonicCourant: 0.482636/0.241082
max/min FaceSonicCourant: 0.482636/0.241082
PIMPLE: iteration 2
diagonal:  Solving for rho, Initial residual = 0, Final residual = 0, No Iterations 0
rho max/min : 1002.15 / 998.01
Creating matrix for fvOptions
DILUPBiCGStab:  Solving for Y.Liq, Initial residual = 0.165494, Final residual = 1.5322e-17, No Iterations 1
Mass fraction min/max = 1/1
DILUPBiCGStab:  Solving for h, Initial residual = 0.00816809, Final residual = 2.004e-18, No Iterations 1
max/min cf_own:1509.42/1506.48
max/min cf_nei:1509.42/1506.48
DILUPBiCGStab:  Solving for p, Initial residual = 6.0168e-06, Final residual = 1.23106e-21, No Iterations 1
max(mag(U)): 2.81668
max/min p: 1e+07/1e+06
diagonal:  Solving for rho, Initial residual = 0, Final residual = 0, No Iterations 0
rho max/min : 1002.15 / 998.01
time step continuity errors : sum local = 1.57443e-16, global = -1.59149e-17, cumulative = 0
max/min FaceSonicCourant: 0.482636/0.241083
max/min FaceSonicCourant: 0.482636/0.241083
ExecutionTime = 0.13 s  ClockTime = 0 s

Mean and max Characteristic Courant Numbers = 0.241321 0.482636
Courant Number max: 0.000443226
deltaT = 2.00037e-07
Time = 1.78163e-06

PIMPLE: iteration 1
diagonal:  Solving for rho, Initial residual = 0, Final residual = 0, No Iterations 0
rho max/min : 1002.15 / 998.01
Creating matrix for fvOptions
DILUPBiCGStab:  Solving for Y.Liq, Initial residual = 0.143008, Final residual = 1.32093e-17, No Iterations 1
Mass fraction min/max = 1/1
DILUPBiCGStab:  Solving for h, Initial residual = 0.0650665, Final residual = 3.77434e-18, No Iterations 1
max/min cf_own:1509.6/1506.31
max/min cf_nei:1509.6/1506.31
DILUPBiCGStab:  Solving for p, Initial residual = 0.000309679, Final residual = 1.41613e-20, No Iterations 1
max(mag(U)): 2.9241
max/min p: 1e+07/1e+06
diagonal:  Solving for rho, Initial residual = 0, Final residual = 0, No Iterations 0
rho max/min : 1002.15 / 998.01
time step continuity errors : sum local = 1.67959e-16, global = -2.87036e-17, cumulative = 0
max/min FaceSonicCourant: 0.482636/0.241054
max/min FaceSonicCourant: 0.482636/0.241054
PIMPLE: iteration 2
diagonal:  Solving for rho, Initial residual = 0, Final residual = 0, No Iterations 0
rho max/min : 1002.15 / 998.01
Creating matrix for fvOptions
DILUPBiCGStab:  Solving for Y.Liq, Initial residual = 0.174654, Final residual = 1.50867e-17, No Iterations 1
Mass fraction min/max = 1/1
DILUPBiCGStab:  Solving for h, Initial residual = 0.00885491, Final residual = 1.55813e-18, No Iterations 1
max/min cf_own:1509.58/1506.32
max/min cf_nei:1509.58/1506.32
DILUPBiCGStab:  Solving for p, Initial residual = 3.19756e-06, Final residual = 2.54075e-22, No Iterations 1
max(mag(U)): 2.93855
max/min p: 1e+07/1e+06
diagonal:  Solving for rho, Initial residual = 0, Final residual = 0, No Iterations 0
rho max/min : 1002.15 / 998.01
time step continuity errors : sum local = 1.4906e-16, global = -2.17408e-17, cumulative = 0
max/min FaceSonicCourant: 0.482636/0.241057
max/min FaceSonicCourant: 0.482636/0.241057
ExecutionTime = 0.13 s  ClockTime = 0 s

Mean and max Characteristic Courant Numbers = 0.241321 0.482636
Courant Number max: 0.00046182
deltaT = 2.00037e-07
Time = 1.98166e-06

PIMPLE: iteration 1
diagonal:  Solving for rho, Initial residual = 0, Final residual = 0, No Iterations 0
rho max/min : 1002.15 / 998.01
Creating matrix for fvOptions
DILUPBiCGStab:  Solving for Y.Liq, Initial residual = 0.144916, Final residual = 1.29536e-17, No Iterations 1
Mass fraction min/max = 1/1
DILUPBiCGStab:  Solving for h, Initial residual = 0.0601438, Final residual = 5.00977e-18, No Iterations 1
max/min cf_own:1509.74/1506.17
max/min cf_nei:1509.74/1506.17
DILUPBiCGStab:  Solving for p, Initial residual = 0.000313711, Final residual = 5.38332e-20, No Iterations 1
max(mag(U)): 3.01776
max/min p: 1e+07/1e+06
diagonal:  Solving for rho, Initial residual = 0, Final residual = 0, No Iterations 0
rho max/min : 1002.15 / 998.01
time step continuity errors : sum local = 1.63554e-16, global = -2.00357e-17, cumulative = 0
max/min FaceSonicCourant: 0.482636/0.241032
max/min FaceSonicCourant: 0.482636/0.241032
PIMPLE: iteration 2
diagonal:  Solving for rho, Initial residual = 0, Final residual = 0, No Iterations 0
rho max/min : 1002.15 / 998.01
Creating matrix for fvOptions
DILUPBiCGStab:  Solving for Y.Liq, Initial residual = 0.168668, Final residual = 1.38592e-17, No Iterations 1
Mass fraction min/max = 1/1
DILUPBiCGStab:  Solving for h, Initial residual = 0.00856529, Final residual = 1.86959e-18, No Iterations 1
max/min cf_own:1509.71/1506.19
max/min cf_nei:1509.71/1506.19
DILUPBiCGStab:  Solving for p, Initial residual = 2.19944e-06, Final residual = 1.55252e-22, No Iterations 1
max(mag(U)): 3.02911
max/min p: 1e+07/1e+06
diagonal:  Solving for rho, Initial residual = 0, Final residual = 0, No Iterations 0
rho max/min : 1002.15 / 998.01
time step continuity errors : sum local = 1.4977e-16, global = -2.18829e-17, cumulative = 0
max/min FaceSonicCourant: 0.482636/0.241036
max/min FaceSonicCourant: 0.482636/0.241036
ExecutionTime = 0.14 s  ClockTime = 0 s

Mean and max Characteristic Courant Numbers = 0.241321 0.482636
Courant Number max: 0.000475769
deltaT = 2.00037e-07
Time = 2.1817e-06

PIMPLE: iteration 1
diagonal:  Solving for rho, Initial residual = 0, Final residual = 0, No Iterations 0
rho max/min : 1002.15 / 998.01
Creating matrix for fvOptions
DILUPBiCGStab:  Solving for Y.Liq, Initial residual = 0.135092, Final residual = 1.18512e-17, No Iterations 1
Mass fraction min/max = 1/1
DILUPBiCGStab:  Solving for h, Initial residual = 0.0553885, Final residual = 1.12359e-17, No Iterations 1
max/min cf_own:1509.84/1506.07
max/min cf_nei:1509.84/1506.07
DILUPBiCGStab:  Solving for p, Initial residual = 0.000316423, Final residual = 3.48208e-20, No Iterations 1
max(mag(U)): 3.08471
max/min p: 1e+07/1e+06
diagonal:  Solving for rho, Initial residual = 0, Final residual = 0, No Iterations 0
rho max/min : 1002.15 / 998.01
time step continuity errors : sum local = 1.68953e-16, global = -2.00357e-17, cumulative = 0
max/min FaceSonicCourant: 0.482636/0.241016
max/min FaceSonicCourant: 0.482636/0.241016
PIMPLE: iteration 2
diagonal:  Solving for rho, Initial residual = 0, Final residual = 0, No Iterations 0
rho max/min : 1002.15 / 998.01
Creating matrix for fvOptions
DILUPBiCGStab:  Solving for Y.Liq, Initial residual = 0.172542, Final residual = 1.62175e-17, No Iterations 1
Mass fraction min/max = 1/1
DILUPBiCGStab:  Solving for h, Initial residual = 0.00742488, Final residual = 9.14911e-19, No Iterations 1
max/min cf_own:1509.81/1506.09
max/min cf_nei:1509.81/1506.09
DILUPBiCGStab:  Solving for p, Initial residual = 3.27192e-06, Final residual = 2.80281e-22, No Iterations 1
max(mag(U)): 3.09356
max/min p: 1e+07/1e+06
diagonal:  Solving for rho, Initial residual = 0, Final residual = 0, No Iterations 0
rho max/min : 1002.15 / 998.01
time step continuity errors : sum local = 1.55596e-16, global = -2.4867e-17, cumulative = 0
max/min FaceSonicCourant: 0.482636/0.24102
max/min FaceSonicCourant: 0.482636/0.24102
ExecutionTime = 0.14 s  ClockTime = 0 s

Mean and max Characteristic Courant Numbers = 0.241322 0.482636
Courant Number max: 0.000486165
deltaT = 2.00037e-07
Time = 2.38174e-06

PIMPLE: iteration 1
diagonal:  Solving for rho, Initial residual = 0, Final residual = 0, No Iterations 0
rho max/min : 1002.15 / 998.01
Creating matrix for fvOptions
DILUPBiCGStab:  Solving for Y.Liq, Initial residual = 0.141857, Final residual = 1.15233e-17, No Iterations 1
Mass fraction min/max = 1/1
DILUPBiCGStab:  Solving for h, Initial residual = 0.0509588, Final residual = 5.26027e-18, No Iterations 1
max/min cf_own:1509.92/1505.99
max/min cf_nei:1509.92/1505.99
DILUPBiCGStab:  Solving for p, Initial residual = 0.000317888, Final residual = 3.34849e-20, No Iterations 1
max(mag(U)): 3.12985
max/min p: 1e+07/1e+06
diagonal:  Solving for rho, Initial residual = 0, Final residual = 0, No Iterations 0
rho max/min : 1002.15 / 998.01
time step continuity errors : sum local = 1.60428e-16, global = -8.66792e-18, cumulative = 0
max/min FaceSonicCourant: 0.482636/0.241003
max/min FaceSonicCourant: 0.482636/0.241003
PIMPLE: iteration 2
diagonal:  Solving for rho, Initial residual = 0, Final residual = 0, No Iterations 0
rho max/min : 1002.15 / 998.01
Creating matrix for fvOptions
DILUPBiCGStab:  Solving for Y.Liq, Initial residual = 0.165133, Final residual = 1.45316e-17, No Iterations 1
Mass fraction min/max = 1/1
DILUPBiCGStab:  Solving for h, Initial residual = 0.00701155, Final residual = 1.43102e-19, No Iterations 1
max/min cf_own:1509.89/1506.02
max/min cf_nei:1509.89/1506.02
DILUPBiCGStab:  Solving for p, Initial residual = 4.88514e-06, Final residual = 3.21408e-22, No Iterations 1
max(mag(U)): 3.13692
max/min p: 1e+07/1e+06
diagonal:  Solving for rho, Initial residual = 0, Final residual = 0, No Iterations 0
rho max/min : 1002.15 / 998.01
time step continuity errors : sum local = 1.50623e-16, global = -2.61458e-17, cumulative = 0
max/min FaceSonicCourant: 0.482636/0.241008
max/min FaceSonicCourant: 0.482636/0.241008
ExecutionTime = 0.14 s  ClockTime = 0 s

Mean and max Characteristic Courant Numbers = 0.241322 0.482636
Courant Number max: 0.000493431
deltaT = 2.00037e-07
Time = 2.58178e-06

PIMPLE: iteration 1
diagonal:  Solving for rho, Initial residual = 0, Final residual = 0, No Iterations 0
rho max/min : 1002.15 / 998.01
Creating matrix for fvOptions
DILUPBiCGStab:  Solving for Y.Liq, Initial residual = 0.133921, Final residual = 1.14356e-17, No Iterations 1
Mass fraction min/max = 1/1
DILUPBiCGStab:  Solving for h, Initial residual = 0.0469151, Final residual = 5.90396e-18, No Iterations 1
max/min cf_own:1509.97/1505.93
max/min cf_nei:1509.97/1505.93
DILUPBiCGStab:  Solving for p, Initial residual = 0.00031813, Final residual = 4.59788e-20, No Iterations 1
max(mag(U)): 3.15743
max/min p: 1e+07/1e+06
diagonal:  Solving for rho, Initial residual = 0, Final residual = 0, No Iterations 0
rho max/min : 1002.15 / 998.01
time step continuity errors : sum local = 1.65401e-16, global = -1.50623e-17, cumulative = 0
max/min FaceSonicCourant: 0.482636/0.240994
max/min FaceSonicCourant: 0.482636/0.240994
PIMPLE: iteration 2
diagonal:  Solving for rho, Initial residual = 0, Final residual = 0, No Iterations 0
rho max/min : 1002.15 / 998.01
Creating matrix for fvOptions
DILUPBiCGStab:  Solving for Y.Liq, Initial residual = 0.166711, Final residual = 1.48524e-17, No Iterations 1
Mass fraction min/max = 1/1
DILUPBiCGStab:  Solving for h, Initial residual = 0.00689646, Final residual = 1.0297e-18, No Iterations 1
max/min cf_own:1509.95/1505.96
max/min cf_nei:1509.95/1505.96
DILUPBiCGStab:  Solving for p, Initial residual = 4.22011e-06, Final residual = 9.00269e-23, No Iterations 1
max(mag(U)): 3.16338
max/min p: 1e+07/1e+06
diagonal:  Solving for rho, Initial residual = 0, Final residual = 0, No Iterations 0
rho max/min : 1002.15 / 998.01
time step continuity errors : sum local = 1.54317e-16, global = -5.96807e-18, cumulative = 0
max/min FaceSonicCourant: 0.482636/0.240998
max/min FaceSonicCourant: 0.482636/0.240998
ExecutionTime = 0.15 s  ClockTime = 0 s

Mean and max Characteristic Courant Numbers = 0.241322 0.482636
Courant Number max: 0.000498063
deltaT = 2.00037e-07
Time = 2.78181e-06

PIMPLE: iteration 1
diagonal:  Solving for rho, Initial residual = 0, Final residual = 0, No Iterations 0
rho max/min : 1002.15 / 998.01
Creating matrix for fvOptions
DILUPBiCGStab:  Solving for Y.Liq, Initial residual = 0.142476, Final residual = 1.30697e-17, No Iterations 1
Mass fraction min/max = 1/1
DILUPBiCGStab:  Solving for h, Initial residual = 0.0432592, Final residual = 3.05657e-18, No Iterations 1
max/min cf_own:1510/1505.9
max/min cf_nei:1510/1505.9
DILUPBiCGStab:  Solving for p, Initial residual = 0.000317294, Final residual = 3.10587e-20, No Iterations 1
max(mag(U)): 3.17179
max/min p: 1e+07/1e+06
diagonal:  Solving for rho, Initial residual = 0, Final residual = 0, No Iterations 0
rho max/min : 1002.15 / 998.01
time step continuity errors : sum local = 1.69095e-16, global = -1.42097e-17, cumulative = 0
max/min FaceSonicCourant: 0.482636/0.240989
max/min FaceSonicCourant: 0.482636/0.240989
PIMPLE: iteration 2
diagonal:  Solving for rho, Initial residual = 0, Final residual = 0, No Iterations 0
rho max/min : 1002.15 / 998.01
Creating matrix for fvOptions
DILUPBiCGStab:  Solving for Y.Liq, Initial residual = 0.168646, Final residual = 1.56862e-17, No Iterations 1
Mass fraction min/max = 1/1
DILUPBiCGStab:  Solving for h, Initial residual = 0.00685412, Final residual = 6.62234e-19, No Iterations 1
max/min cf_own:1509.99/1505.92
max/min cf_nei:1509.99/1505.92
DILUPBiCGStab:  Solving for p, Initial residual = 2.16398e-06, Final residual = 1.12504e-22, No Iterations 1
max(mag(U)): 3.17636
max/min p: 1e+07/1e+06
diagonal:  Solving for rho, Initial residual = 0, Final residual = 0, No Iterations 0
rho max/min : 1002.15 / 998.01
time step continuity errors : sum local = 1.52328e-16, global = -2.27355e-17, cumulative = 0
max/min FaceSonicCourant: 0.482636/0.240992
max/min FaceSonicCourant: 0.482636/0.240992
ExecutionTime = 0.15 s  ClockTime = 0 s

Mean and max Characteristic Courant Numbers = 0.241322 0.482636
Courant Number max: 0.000500548
deltaT = 2.00037e-07
Time = 2.98185e-06

PIMPLE: iteration 1
diagonal:  Solving for rho, Initial residual = 0, Final residual = 0, No Iterations 0
rho max/min : 1002.15 / 998.01
Creating matrix for fvOptions
DILUPBiCGStab:  Solving for Y.Liq, Initial residual = 0.143392, Final residual = 1.18149e-17, No Iterations 1
Mass fraction min/max = 1/1
DILUPBiCGStab:  Solving for h, Initial residual = 0.0399843, Final residual = 1.56458e-18, No Iterations 1
max/min cf_own:1510.08/1505.83
max/min cf_nei:1510.08/1505.83
DILUPBiCGStab:  Solving for p, Initial residual = 0.000315844, Final residual = 8.51894e-20, No Iterations 1
max(mag(U)): 3.17558
max/min p: 1e+07/1e+06
diagonal:  Solving for rho, Initial residual = 0, Final residual = 0, No Iterations 0
rho max/min : 1002.15 / 998.01
time step continuity errors : sum local = 1.65117e-16, global = -1.47781e-17, cumulative = 0
max/min FaceSonicCourant: 0.482636/0.240978
max/min FaceSonicCourant: 0.482636/0.240978
PIMPLE: iteration 2
diagonal:  Solving for rho, Initial residual = 0, Final residual = 0, No Iterations 0
rho max/min : 1002.15 / 998.01
Creating matrix for fvOptions
DILUPBiCGStab:  Solving for Y.Liq, Initial residual = 0.179351, Final residual = 1.5622e-17, No Iterations 1
Mass fraction min/max = 1/1
DILUPBiCGStab:  Solving for h, Initial residual = 0.00641539, Final residual = 1.03335e-18, No Iterations 1
max/min cf_own:1510.05/1505.86
max/min cf_nei:1510.05/1505.86
DILUPBiCGStab:  Solving for p, Initial residual = 3.94891e-06, Final residual = 3.76945e-22, No Iterations 1
max(mag(U)): 3.17901
max/min p: 1e+07/1e+06
diagonal:  Solving for rho, Initial residual = 0, Final residual = 0, No Iterations 0
rho max/min : 1002.15 / 998.01
time step continuity errors : sum local = 1.47497e-16, global = -1.59149e-17, cumulative = 0
max/min FaceSonicCourant: 0.482636/0.240982
max/min FaceSonicCourant: 0.482636/0.240982
ExecutionTime = 0.16 s  ClockTime = 0 s

Mean and max Characteristic Courant Numbers = 0.241323 0.482636
Courant Number max: 0.000501457
deltaT = 2.00037e-07
Time = 3.18189e-06

PIMPLE: iteration 1
diagonal:  Solving for rho, Initial residual = 0, Final residual = 0, No Iterations 0
rho max/min : 1002.15 / 998.01
Creating matrix for fvOptions
DILUPBiCGStab:  Solving for Y.Liq, Initial residual = 0.140107, Final residual = 1.17144e-17, No Iterations 1
Mass fraction min/max = 1/1
DILUPBiCGStab:  Solving for h, Initial residual = 0.0375011, Final residual = 1.51221e-17, No Iterations 1
max/min cf_own:1510.17/1505.74
max/min cf_nei:1510.17/1505.74
DILUPBiCGStab:  Solving for p, Initial residual = 0.000313981, Final residual = 2.21004e-20, No Iterations 1
max(mag(U)): 3.17143
max/min p: 1e+07/1e+06
[...]
rho max/min : 1002.15 / 998.01
Creating matrix for fvOptions
DILUPBiCGStab:  Solving for Y.Liq, Initial residual = 0.120355, Final residual = 1.16825e-17, No Iterations 1
Mass fraction min/max = 1/1
DILUPBiCGStab:  Solving for h, Initial residual = 0.000516363, Final residual = 4.02899e-20, No Iterations 1
max/min cf_own:1510.72/1505.18
max/min cf_nei:1510.72/1505.18
DILUPBiCGStab:  Solving for p, Initial residual = 0.000711352, Final residual = 1.63027e-19, No Iterations 1
max(mag(U)): 3.04532
max/min p: 1e+07/1e+06
diagonal:  Solving for rho, Initial residual = 0, Final residual = 0, No Iterations 0
rho max/min : 1002.15 / 998.01
time step continuity errors : sum local = 1.67959e-16, global = -2.18829e-17, cumulative = 0
max/min FaceSonicCourant: 0.482545/0.240829
max/min FaceSonicCourant: 0.482545/0.240829
PIMPLE: iteration 2
diagonal:  Solving for rho, Initial residual = 0, Final residual = 0, No Iterations 0
rho max/min : 1002.15 / 998.01
Creating matrix for fvOptions
DILUPBiCGStab:  Solving for Y.Liq, Initial residual = 0.138172, Final residual = 1.21022e-17, No Iterations 1
Mass fraction min/max = 1/1
DILUPBiCGStab:  Solving for h, Initial residual = 1.24897e-05, Final residual = 1.17412e-21, No Iterations 1
max/min cf_own:1510.72/1505.18
max/min cf_nei:1510.72/1505.18
DILUPBiCGStab:  Solving for p, Initial residual = 3.2544e-07, Final residual = 5.8063e-23, No Iterations 1
max(mag(U)): 3.04532
max/min p: 1e+07/1e+06
diagonal:  Solving for rho, Initial residual = 0, Final residual = 0, No Iterations 0
rho max/min : 1002.15 / 998.01
time step continuity errors : sum local = 1.56307e-16, global = -2.24513e-17, cumulative = 0
max/min FaceSonicCourant: 0.482545/0.240829
max/min FaceSonicCourant: 0.482545/0.240829
ExecutionTime = 4.31 s  ClockTime = 4 s

Mean and max Characteristic Courant Numbers = 0.241558 0.482545
Courant Number max: 0.000487263
deltaT = 2e-07
Time = 0.0001984

PIMPLE: iteration 1
diagonal:  Solving for rho, Initial residual = 0, Final residual = 0, No Iterations 0
rho max/min : 1002.15 / 998.01
Creating matrix for fvOptions
DILUPBiCGStab:  Solving for Y.Liq, Initial residual = 0.111982, Final residual = 9.30336e-18, No Iterations 1
Mass fraction min/max = 1/1
DILUPBiCGStab:  Solving for h, Initial residual = 0.000515835, Final residual = 1.04604e-19, No Iterations 1
max/min cf_own:1510.72/1505.18
max/min cf_nei:1510.72/1505.18
DILUPBiCGStab:  Solving for p, Initial residual = 0.000712365, Final residual = 6.94075e-20, No Iterations 1
max(mag(U)): 3.04532
max/min p: 1e+07/1e+06
diagonal:  Solving for rho, Initial residual = 0, Final residual = 0, No Iterations 0
rho max/min : 1002.15 / 998.01
time step continuity errors : sum local = 1.55312e-16, global = -2.40144e-17, cumulative = 0
max/min FaceSonicCourant: 0.482545/0.240829
max/min FaceSonicCourant: 0.482545/0.240829
PIMPLE: iteration 2
diagonal:  Solving for rho, Initial residual = 0, Final residual = 0, No Iterations 0
rho max/min : 1002.15 / 998.01
Creating matrix for fvOptions
DILUPBiCGStab:  Solving for Y.Liq, Initial residual = 0.12899, Final residual = 1.13614e-17, No Iterations 1
Mass fraction min/max = 1/1
DILUPBiCGStab:  Solving for h, Initial residual = 1.24591e-05, Final residual = 4.71777e-21, No Iterations 1
max/min cf_own:1510.72/1505.18
max/min cf_nei:1510.72/1505.18
DILUPBiCGStab:  Solving for p, Initial residual = 3.06942e-07, Final residual = 2.1317e-23, No Iterations 1
max(mag(U)): 3.04532
max/min p: 1e+07/1e+06
diagonal:  Solving for rho, Initial residual = 0, Final residual = 0, No Iterations 0
rho max/min : 1002.15 / 998.01
time step continuity errors : sum local = 1.54744e-16, global = -2.40144e-17, cumulative = 0
max/min FaceSonicCourant: 0.482545/0.240829
max/min FaceSonicCourant: 0.482545/0.240829
ExecutionTime = 4.31 s  ClockTime = 4 s

Mean and max Characteristic Courant Numbers = 0.241558 0.482545
Courant Number max: 0.000487263
deltaT = 2e-07
Time = 0.0001986

PIMPLE: iteration 1
diagonal:  Solving for rho, Initial residual = 0, Final residual = 0, No Iterations 0
rho max/min : 1002.15 / 998.01
Creating matrix for fvOptions
DILUPBiCGStab:  Solving for Y.Liq, Initial residual = 0.109829, Final residual = 9.67384e-18, No Iterations 1
Mass fraction min/max = 1/1
DILUPBiCGStab:  Solving for h, Initial residual = 0.000515308, Final residual = 4.62994e-20, No Iterations 1
max/min cf_own:1510.72/1505.18
max/min cf_nei:1510.72/1505.18
DILUPBiCGStab:  Solving for p, Initial residual = 0.000713381, Final residual = 8.06739e-20, No Iterations 1
max(mag(U)): 3.04532
max/min p: 1e+07/1e+06
diagonal:  Solving for rho, Initial residual = 0, Final residual = 0, No Iterations 0
rho max/min : 1002.15 / 998.01
time step continuity errors : sum local = 1.60854e-16, global = -2.24513e-17, cumulative = 0
max/min FaceSonicCourant: 0.482545/0.240829
max/min FaceSonicCourant: 0.482545/0.240829
PIMPLE: iteration 2
diagonal:  Solving for rho, Initial residual = 0, Final residual = 0, No Iterations 0
rho max/min : 1002.15 / 998.01
Creating matrix for fvOptions
DILUPBiCGStab:  Solving for Y.Liq, Initial residual = 0.131985, Final residual = 1.11925e-17, No Iterations 1
Mass fraction min/max = 1/1
DILUPBiCGStab:  Solving for h, Initial residual = 1.24484e-05, Final residual = 1.09633e-21, No Iterations 1
max/min cf_own:1510.72/1505.18
max/min cf_nei:1510.72/1505.18
DILUPBiCGStab:  Solving for p, Initial residual = 3.35699e-07, Final residual = 4.93116e-23, No Iterations 1
max(mag(U)): 3.04532
max/min p: 1e+07/1e+06
diagonal:  Solving for rho, Initial residual = 0, Final residual = 0, No Iterations 0
rho max/min : 1002.15 / 998.01
time step continuity errors : sum local = 1.52044e-16, global = -1.56307e-17, cumulative = 0
max/min FaceSonicCourant: 0.482545/0.240829
max/min FaceSonicCourant: 0.482545/0.240829
ExecutionTime = 4.31 s  ClockTime = 4 s

Mean and max Characteristic Courant Numbers = 0.241559 0.482545
Courant Number max: 0.000487263
deltaT = 2e-07
Time = 0.0001988

PIMPLE: iteration 1
diagonal:  Solving for rho, Initial residual = 0, Final residual = 0, No Iterations 0
rho max/min : 1002.15 / 998.01
Creating matrix for fvOptions
DILUPBiCGStab:  Solving for Y.Liq, Initial residual = 0.108323, Final residual = 1.01504e-17, No Iterations 1
Mass fraction min/max = 1/1
DILUPBiCGStab:  Solving for h, Initial residual = 0.000514783, Final residual = 5.07551e-20, No Iterations 1
max/min cf_own:1510.72/1505.18
max/min cf_nei:1510.72/1505.18
DILUPBiCGStab:  Solving for p, Initial residual = 0.000714399, Final residual = 1.64198e-19, No Iterations 1
max(mag(U)): 3.04532
max/min p: 1e+07/1e+06
diagonal:  Solving for rho, Initial residual = 0, Final residual = 0, No Iterations 0
rho max/min : 1002.15 / 998.01
time step continuity errors : sum local = 1.59149e-16, global = 5.68388e-18, cumulative = 0
max/min FaceSonicCourant: 0.482545/0.240829
max/min FaceSonicCourant: 0.482545/0.240829
PIMPLE: iteration 2
diagonal:  Solving for rho, Initial residual = 0, Final residual = 0, No Iterations 0
rho max/min : 1002.15 / 998.01
Creating matrix for fvOptions
DILUPBiCGStab:  Solving for Y.Liq, Initial residual = 0.121806, Final residual = 1.05178e-17, No Iterations 1
Mass fraction min/max = 1/1
DILUPBiCGStab:  Solving for h, Initial residual = 1.24158e-05, Final residual = 2.66001e-21, No Iterations 1
max/min cf_own:1510.72/1505.18
max/min cf_nei:1510.72/1505.18
DILUPBiCGStab:  Solving for p, Initial residual = 3.06886e-07, Final residual = 5.4468e-23, No Iterations 1
max(mag(U)): 3.04532
max/min p: 1e+07/1e+06
diagonal:  Solving for rho, Initial residual = 0, Final residual = 0, No Iterations 0
rho max/min : 1002.15 / 998.01
time step continuity errors : sum local = 1.48207e-16, global = 1.54886e-17, cumulative = 0
max/min FaceSonicCourant: 0.482545/0.240829
max/min FaceSonicCourant: 0.482545/0.240829
ExecutionTime = 4.32 s  ClockTime = 4 s

Mean and max Characteristic Courant Numbers = 0.241559 0.482545
Courant Number max: 0.000487263
deltaT = 2e-07
Time = 0.000199

PIMPLE: iteration 1
diagonal:  Solving for rho, Initial residual = 0, Final residual = 0, No Iterations 0
rho max/min : 1002.15 / 998.01
Creating matrix for fvOptions
DILUPBiCGStab:  Solving for Y.Liq, Initial residual = 0.109656, Final residual = 1.04799e-17, No Iterations 1
Mass fraction min/max = 1/1
DILUPBiCGStab:  Solving for h, Initial residual = 0.000514258, Final residual = 1.09886e-19, No Iterations 1
max/min cf_own:1510.72/1505.18
max/min cf_nei:1510.72/1505.18
DILUPBiCGStab:  Solving for p, Initial residual = 0.00071542, Final residual = 1.21107e-19, No Iterations 1
max(mag(U)): 3.04532
max/min p: 1e+07/1e+06
diagonal:  Solving for rho, Initial residual = 0, Final residual = 0, No Iterations 0
rho max/min : 1002.15 / 998.01
time step continuity errors : sum local = 1.58864e-16, global = -3.18297e-17, cumulative = 0
max/min FaceSonicCourant: 0.482545/0.240829
max/min FaceSonicCourant: 0.482545/0.240829
PIMPLE: iteration 2
diagonal:  Solving for rho, Initial residual = 0, Final residual = 0, No Iterations 0
rho max/min : 1002.15 / 998.01
Creating matrix for fvOptions
DILUPBiCGStab:  Solving for Y.Liq, Initial residual = 0.1288, Final residual = 1.23953e-17, No Iterations 1
Mass fraction min/max = 1/1
DILUPBiCGStab:  Solving for h, Initial residual = 1.24139e-05, Final residual = 2.74435e-21, No Iterations 1
max/min cf_own:1510.72/1505.18
max/min cf_nei:1510.72/1505.18
DILUPBiCGStab:  Solving for p, Initial residual = 3.087e-07, Final residual = 6.28097e-23, No Iterations 1
max(mag(U)): 3.04532
max/min p: 1e+07/1e+06
diagonal:  Solving for rho, Initial residual = 0, Final residual = 0, No Iterations 0
rho max/min : 1002.15 / 998.01
time step continuity errors : sum local = 1.51618e-16, global = -3.28244e-17, cumulative = 0
max/min FaceSonicCourant: 0.482545/0.240829
max/min FaceSonicCourant: 0.482545/0.240829
ExecutionTime = 4.32 s  ClockTime = 4 s

Mean and max Characteristic Courant Numbers = 0.241559 0.482545
Courant Number max: 0.000487263
deltaT = 2e-07
Time = 0.0001992

PIMPLE: iteration 1
diagonal:  Solving for rho, Initial residual = 0, Final residual = 0, No Iterations 0
rho max/min : 1002.15 / 998.01
Creating matrix for fvOptions
DILUPBiCGStab:  Solving for Y.Liq, Initial residual = 0.114754, Final residual = 1.14433e-17, No Iterations 1
Mass fraction min/max = 1/1
DILUPBiCGStab:  Solving for h, Initial residual = 0.000513734, Final residual = 1.07308e-19, No Iterations 1
max/min cf_own:1510.72/1505.18
max/min cf_nei:1510.72/1505.18
DILUPBiCGStab:  Solving for p, Initial residual = 0.000716445, Final residual = 7.05921e-20, No Iterations 1
max(mag(U)): 3.04532
max/min p: 1e+07/1e+06
diagonal:  Solving for rho, Initial residual = 0, Final residual = 0, No Iterations 0
rho max/min : 1002.15 / 998.01
time step continuity errors : sum local = 1.57728e-16, global = 1.762e-17, cumulative = 0
max/min FaceSonicCourant: 0.482545/0.240829
max/min FaceSonicCourant: 0.482545/0.240829
PIMPLE: iteration 2
diagonal:  Solving for rho, Initial residual = 0, Final residual = 0, No Iterations 0
rho max/min : 1002.15 / 998.01
Creating matrix for fvOptions
DILUPBiCGStab:  Solving for Y.Liq, Initial residual = 0.132097, Final residual = 1.17959e-17, No Iterations 1
Mass fraction min/max = 1/1
DILUPBiCGStab:  Solving for h, Initial residual = 1.23816e-05, Final residual = 1.0218e-21, No Iterations 1
max/min cf_own:1510.72/1505.18
max/min cf_nei:1510.72/1505.18
DILUPBiCGStab:  Solving for p, Initial residual = 3.12143e-07, Final residual = 6.02895e-23, No Iterations 1
max(mag(U)): 3.04532
max/min p: 1e+07/1e+06
diagonal:  Solving for rho, Initial residual = 0, Final residual = 0, No Iterations 0
rho max/min : 1002.15 / 998.01
time step continuity errors : sum local = 1.52896e-16, global = 9.6626e-18, cumulative = 0
max/min FaceSonicCourant: 0.482545/0.240829
max/min FaceSonicCourant: 0.482545/0.240829
ExecutionTime = 4.33 s  ClockTime = 4 s

Mean and max Characteristic Courant Numbers = 0.241559 0.482545
Courant Number max: 0.000487263
deltaT = 2e-07
Time = 0.0001994

PIMPLE: iteration 1
diagonal:  Solving for rho, Initial residual = 0, Final residual = 0, No Iterations 0
rho max/min : 1002.15 / 998.01
Creating matrix for fvOptions
DILUPBiCGStab:  Solving for Y.Liq, Initial residual = 0.103487, Final residual = 8.58499e-18, No Iterations 1
Mass fraction min/max = 1/1
DILUPBiCGStab:  Solving for h, Initial residual = 0.000513211, Final residual = 1.15185e-19, No Iterations 1
max/min cf_own:1510.72/1505.18
max/min cf_nei:1510.72/1505.18
DILUPBiCGStab:  Solving for p, Initial residual = 0.000717472, Final residual = 1.49272e-19, No Iterations 1
max(mag(U)): 3.04532
max/min p: 1e+07/1e+06
diagonal:  Solving for rho, Initial residual = 0, Final residual = 0, No Iterations 0
rho max/min : 1002.15 / 998.01
time step continuity errors : sum local = 1.62985e-16, global = -2.65721e-17, cumulative = 0
max/min FaceSonicCourant: 0.482545/0.240829
max/min FaceSonicCourant: 0.482545/0.240829
PIMPLE: iteration 2
diagonal:  Solving for rho, Initial residual = 0, Final residual = 0, No Iterations 0
rho max/min : 1002.15 / 998.01
Creating matrix for fvOptions
DILUPBiCGStab:  Solving for Y.Liq, Initial residual = 0.130728, Final residual = 1.18889e-17, No Iterations 1
Mass fraction min/max = 1/1
DILUPBiCGStab:  Solving for h, Initial residual = 1.237e-05, Final residual = 2.57205e-21, No Iterations 1
max/min cf_own:1510.72/1505.18
max/min cf_nei:1510.72/1505.18
DILUPBiCGStab:  Solving for p, Initial residual = 3.15423e-07, Final residual = 3.74398e-23, No Iterations 1
max(mag(U)): 3.04532
max/min p: 1e+07/1e+06
diagonal:  Solving for rho, Initial residual = 0, Final residual = 0, No Iterations 0
rho max/min : 1002.15 / 998.01
time step continuity errors : sum local = 1.57301e-16, global = -2.2025e-17, cumulative = 0
max/min FaceSonicCourant: 0.482545/0.240829
max/min FaceSonicCourant: 0.482545/0.240829
ExecutionTime = 4.33 s  ClockTime = 4 s

Mean and max Characteristic Courant Numbers = 0.24156 0.482545
Courant Number max: 0.000487263
deltaT = 2e-07
Time = 0.0001996

PIMPLE: iteration 1
diagonal:  Solving for rho, Initial residual = 0, Final residual = 0, No Iterations 0
rho max/min : 1002.15 / 998.01
Creating matrix for fvOptions
DILUPBiCGStab:  Solving for Y.Liq, Initial residual = 0.102441, Final residual = 9.15064e-18, No Iterations 1
Mass fraction min/max = 1/1
DILUPBiCGStab:  Solving for h, Initial residual = 0.00051269, Final residual = 4.19752e-20, No Iterations 1
max/min cf_own:1510.72/1505.18
max/min cf_nei:1510.72/1505.18
DILUPBiCGStab:  Solving for p, Initial residual = 0.000718502, Final residual = 8.35421e-20, No Iterations 1
max(mag(U)): 3.04532
max/min p: 1e+07/1e+06
diagonal:  Solving for rho, Initial residual = 0, Final residual = 0, No Iterations 0
rho max/min : 1002.15 / 998.01
time step continuity errors : sum local = 1.54459e-16, global = -2.65721e-17, cumulative = 0
max/min FaceSonicCourant: 0.482545/0.240829
max/min FaceSonicCourant: 0.482545/0.240829
PIMPLE: iteration 2
diagonal:  Solving for rho, Initial residual = 0, Final residual = 0, No Iterations 0
rho max/min : 1002.15 / 998.01
Creating matrix for fvOptions
DILUPBiCGStab:  Solving for Y.Liq, Initial residual = 0.128456, Final residual = 1.17958e-17, No Iterations 1
Mass fraction min/max = 1/1
DILUPBiCGStab:  Solving for h, Initial residual = 1.23341e-05, Final residual = 1.31291e-21, No Iterations 1
max/min cf_own:1510.72/1505.18
max/min cf_nei:1510.72/1505.18
DILUPBiCGStab:  Solving for p, Initial residual = 3.16344e-07, Final residual = 3.16292e-23, No Iterations 1
max(mag(U)): 3.04532
max/min p: 1e+07/1e+06
diagonal:  Solving for rho, Initial residual = 0, Final residual = 0, No Iterations 0
rho max/min : 1002.15 / 998.01
time step continuity errors : sum local = 1.56307e-16, global = -1.9041e-17, cumulative = 0
max/min FaceSonicCourant: 0.482545/0.240829
max/min FaceSonicCourant: 0.482545/0.240829
ExecutionTime = 4.34 s  ClockTime = 4 s

Mean and max Characteristic Courant Numbers = 0.24156 0.482545
Courant Number max: 0.000487263
deltaT = 2e-07
Time = 0.0001998

PIMPLE: iteration 1
diagonal:  Solving for rho, Initial residual = 0, Final residual = 0, No Iterations 0
rho max/min : 1002.15 / 998.01
Creating matrix for fvOptions
DILUPBiCGStab:  Solving for Y.Liq, Initial residual = 0.107018, Final residual = 1.00664e-17, No Iterations 1
Mass fraction min/max = 1/1
DILUPBiCGStab:  Solving for h, Initial residual = 0.000512169, Final residual = 4.40823e-20, No Iterations 1
max/min cf_own:1510.72/1505.18
max/min cf_nei:1510.72/1505.18
DILUPBiCGStab:  Solving for p, Initial residual = 0.000719535, Final residual = 7.41563e-20, No Iterations 1
max(mag(U)): 3.04532
max/min p: 1e+07/1e+06
diagonal:  Solving for rho, Initial residual = 0, Final residual = 0, No Iterations 0
rho max/min : 1002.15 / 998.01
time step continuity errors : sum local = 1.68243e-16, global = -3.01246e-17, cumulative = 0
max/min FaceSonicCourant: 0.482545/0.240829
max/min FaceSonicCourant: 0.482545/0.240829
PIMPLE: iteration 2
diagonal:  Solving for rho, Initial residual = 0, Final residual = 0, No Iterations 0
rho max/min : 1002.15 / 998.01
Creating matrix for fvOptions
DILUPBiCGStab:  Solving for Y.Liq, Initial residual = 0.125891, Final residual = 1.06678e-17, No Iterations 1
Mass fraction min/max = 1/1
DILUPBiCGStab:  Solving for h, Initial residual = 1.23377e-05, Final residual = 1.83089e-21, No Iterations 1
max/min cf_own:1510.72/1505.18
max/min cf_nei:1510.72/1505.18
DILUPBiCGStab:  Solving for p, Initial residual = 2.91816e-07, Final residual = 2.86847e-23, No Iterations 1
max(mag(U)): 3.04532
max/min p: 1e+07/1e+06
diagonal:  Solving for rho, Initial residual = 0, Final residual = 0, No Iterations 0
rho max/min : 1002.15 / 998.01
time step continuity errors : sum local = 1.55028e-16, global = -1.40676e-17, cumulative = 0
max/min FaceSonicCourant: 0.482545/0.240829
max/min FaceSonicCourant: 0.482545/0.240829
ExecutionTime = 4.34 s  ClockTime = 4 s

Mean and max Characteristic Courant Numbers = 0.24156 0.482545
Courant Number max: 0.000487263
deltaT = 2e-07
Time = 0.0002

PIMPLE: iteration 1
diagonal:  Solving for rho, Initial residual = 0, Final residual = 0, No Iterations 0
rho max/min : 1002.15 / 998.01
Creating matrix for fvOptions
DILUPBiCGStab:  Solving for Y.Liq, Initial residual = 0.115572, Final residual = 1.0046e-17, No Iterations 1
Mass fraction min/max = 1/1
DILUPBiCGStab:  Solving for h, Initial residual = 0.000511649, Final residual = 1.01695e-19, No Iterations 1
max/min cf_own:1510.72/1505.18
max/min cf_nei:1510.72/1505.18
DILUPBiCGStab:  Solving for p, Initial residual = 0.000720571, Final residual = 1.00072e-19, No Iterations 1
max(mag(U)): 3.04532
max/min p: 1e+07/1e+06
diagonal:  Solving for rho, Initial residual = 0, Final residual = 0, No Iterations 0
rho max/min : 1002.15 / 998.01
time step continuity errors : sum local = 1.5176e-16, global = 1.50623e-17, cumulative = 0
max/min FaceSonicCourant: 0.482545/0.240829
max/min FaceSonicCourant: 0.482545/0.240829
PIMPLE: iteration 2
diagonal:  Solving for rho, Initial residual = 0, Final residual = 0, No Iterations 0
rho max/min : 1002.15 / 998.01
Creating matrix for fvOptions
DILUPBiCGStab:  Solving for Y.Liq, Initial residual = 0.136208, Final residual = 1.20429e-17, No Iterations 1
Mass fraction min/max = 1/1
DILUPBiCGStab:  Solving for h, Initial residual = 1.23035e-05, Final residual = 9.12345e-22, No Iterations 1
max/min cf_own:1510.72/1505.18
max/min cf_nei:1510.72/1505.18
DILUPBiCGStab:  Solving for p, Initial residual = 3.16291e-07, Final residual = 2.3573e-23, No Iterations 1
max(mag(U)): 3.04532
max/min p: 1e+07/1e+06
diagonal:  Solving for rho, Initial residual = 0, Final residual = 0, No Iterations 0
rho max/min : 1002.15 / 998.01
time step continuity errors : sum local = 1.54033e-16, global = 1.07994e-17, cumulative = 0
max/min FaceSonicCourant: 0.482545/0.240829
max/min FaceSonicCourant: 0.482545/0.240829
ExecutionTime = 4.34 s  ClockTime = 4 s

End

